gem5 Simulator System.  http://gem5.org
gem5 is copyrighted software; use the --copyright option for details.

gem5 compiled Nov  9 2018 16:41:18
gem5 started Nov  9 2018 16:48:16
gem5 executing on storage1, pid 19752
command line: ./build/X86/gem5.opt -d syx-snap-cc-rmat21-sort -r -e configs/example/se.py -n 4 --caches --l2cache --l3cache --l1d_size=32kB --l1i_size=32kB --l2_size=256kB --l3_size=8MB --mem-size=4GB -c /home/syx/snap/examples/concomp/concomp -o ' -i /home/syx/snap/examples/concomp/rmat21_sort.txt '

