
---------- Begin Simulation Statistics ----------
sim_seconds                                184.361008                       # Number of seconds simulated
sim_ticks                                184361008100000                       # Number of ticks simulated
final_tick                               184361008100000                       # Number of ticks from beginning of simulation (restored from checkpoints and never reset)
sim_freq                                 1000000000000                       # Frequency of simulated ticks
host_inst_rate                                1410387                       # Simulator instruction rate (inst/s)
host_op_rate                                  2803743                       # Simulator op (including micro ops) rate (op/s)
host_tick_rate                             1611449785                       # Simulator tick rate (ticks/s)
host_mem_usage                                8818944                       # Number of bytes of host memory used
host_seconds                                114406.92                       # Real time elapsed on the host
sim_insts                                161358051090                       # Number of instructions simulated
sim_ops                                  320767581562                       # Number of ops (including micro ops) simulated
system.voltage_domain.voltage                       1                       # Voltage in Volts
system.clk_domain.clock                          1000                       # Clock period in ticks
system.mem_ctrls.pwrStateResidencyTicks::UNDEFINED 184361008100000                       # Cumulative time (in ticks) in various power states
system.mem_ctrls.bytes_read::cpu0.inst         323392                       # Number of bytes read from this memory
system.mem_ctrls.bytes_read::cpu0.data    41427484096                       # Number of bytes read from this memory
system.mem_ctrls.bytes_read::total        41427807488                       # Number of bytes read from this memory
system.mem_ctrls.bytes_inst_read::cpu0.inst       323392                       # Number of instructions bytes read from this memory
system.mem_ctrls.bytes_inst_read::total        323392                       # Number of instructions bytes read from this memory
system.mem_ctrls.bytes_written::writebacks  19766085824                       # Number of bytes written to this memory
system.mem_ctrls.bytes_written::total     19766085824                       # Number of bytes written to this memory
system.mem_ctrls.num_reads::cpu0.inst            5053                       # Number of read requests responded to by this memory
system.mem_ctrls.num_reads::cpu0.data       647304439                       # Number of read requests responded to by this memory
system.mem_ctrls.num_reads::total           647309492                       # Number of read requests responded to by this memory
system.mem_ctrls.num_writes::writebacks     308845091                       # Number of write requests responded to by this memory
system.mem_ctrls.num_writes::total          308845091                       # Number of write requests responded to by this memory
system.mem_ctrls.bw_read::cpu0.inst              1754                       # Total read bandwidth from this memory (bytes/s)
system.mem_ctrls.bw_read::cpu0.data         224708492                       # Total read bandwidth from this memory (bytes/s)
system.mem_ctrls.bw_read::total             224710246                       # Total read bandwidth from this memory (bytes/s)
system.mem_ctrls.bw_inst_read::cpu0.inst         1754                       # Instruction read bandwidth from this memory (bytes/s)
system.mem_ctrls.bw_inst_read::total             1754                       # Instruction read bandwidth from this memory (bytes/s)
system.mem_ctrls.bw_write::writebacks       107214026                       # Write bandwidth from this memory (bytes/s)
system.mem_ctrls.bw_write::total            107214026                       # Write bandwidth from this memory (bytes/s)
system.mem_ctrls.bw_total::writebacks       107214026                       # Total bandwidth to/from this memory (bytes/s)
system.mem_ctrls.bw_total::cpu0.inst             1754                       # Total bandwidth to/from this memory (bytes/s)
system.mem_ctrls.bw_total::cpu0.data        224708492                       # Total bandwidth to/from this memory (bytes/s)
system.mem_ctrls.bw_total::total            331924272                       # Total bandwidth to/from this memory (bytes/s)
system.mem_ctrls.readReqs                           0                       # Number of read requests accepted
system.mem_ctrls.writeReqs                          0                       # Number of write requests accepted
system.mem_ctrls.readBursts                         0                       # Number of DRAM read bursts, including those serviced by the write queue
system.mem_ctrls.writeBursts                        0                       # Number of DRAM write bursts, including those merged in the write queue
system.mem_ctrls.bytesReadDRAM                      0                       # Total number of bytes read from DRAM
system.mem_ctrls.bytesReadWrQ                       0                       # Total number of bytes read from write queue
system.mem_ctrls.bytesWritten                       0                       # Total number of bytes written to DRAM
system.mem_ctrls.bytesReadSys                       0                       # Total read bytes from the system interface side
system.mem_ctrls.bytesWrittenSys                    0                       # Total written bytes from the system interface side
system.mem_ctrls.servicedByWrQ                      0                       # Number of DRAM read bursts serviced by the write queue
system.mem_ctrls.mergedWrBursts                     0                       # Number of DRAM write bursts merged with an existing one
system.mem_ctrls.neitherReadNorWriteReqs            0                       # Number of requests that are neither read nor write
system.mem_ctrls.perBankRdBursts::0                 0                       # Per bank write bursts
system.mem_ctrls.perBankRdBursts::1                 0                       # Per bank write bursts
system.mem_ctrls.perBankRdBursts::2                 0                       # Per bank write bursts
system.mem_ctrls.perBankRdBursts::3                 0                       # Per bank write bursts
system.mem_ctrls.perBankRdBursts::4                 0                       # Per bank write bursts
system.mem_ctrls.perBankRdBursts::5                 0                       # Per bank write bursts
system.mem_ctrls.perBankRdBursts::6                 0                       # Per bank write bursts
system.mem_ctrls.perBankRdBursts::7                 0                       # Per bank write bursts
system.mem_ctrls.perBankRdBursts::8                 0                       # Per bank write bursts
system.mem_ctrls.perBankRdBursts::9                 0                       # Per bank write bursts
system.mem_ctrls.perBankRdBursts::10                0                       # Per bank write bursts
system.mem_ctrls.perBankRdBursts::11                0                       # Per bank write bursts
system.mem_ctrls.perBankRdBursts::12                0                       # Per bank write bursts
system.mem_ctrls.perBankRdBursts::13                0                       # Per bank write bursts
system.mem_ctrls.perBankRdBursts::14                0                       # Per bank write bursts
system.mem_ctrls.perBankRdBursts::15                0                       # Per bank write bursts
system.mem_ctrls.perBankWrBursts::0                 0                       # Per bank write bursts
system.mem_ctrls.perBankWrBursts::1                 0                       # Per bank write bursts
system.mem_ctrls.perBankWrBursts::2                 0                       # Per bank write bursts
system.mem_ctrls.perBankWrBursts::3                 0                       # Per bank write bursts
system.mem_ctrls.perBankWrBursts::4                 0                       # Per bank write bursts
system.mem_ctrls.perBankWrBursts::5                 0                       # Per bank write bursts
system.mem_ctrls.perBankWrBursts::6                 0                       # Per bank write bursts
system.mem_ctrls.perBankWrBursts::7                 0                       # Per bank write bursts
system.mem_ctrls.perBankWrBursts::8                 0                       # Per bank write bursts
system.mem_ctrls.perBankWrBursts::9                 0                       # Per bank write bursts
system.mem_ctrls.perBankWrBursts::10                0                       # Per bank write bursts
system.mem_ctrls.perBankWrBursts::11                0                       # Per bank write bursts
system.mem_ctrls.perBankWrBursts::12                0                       # Per bank write bursts
system.mem_ctrls.perBankWrBursts::13                0                       # Per bank write bursts
system.mem_ctrls.perBankWrBursts::14                0                       # Per bank write bursts
system.mem_ctrls.perBankWrBursts::15                0                       # Per bank write bursts
system.mem_ctrls.numRdRetry                         0                       # Number of times read queue was full causing retry
system.mem_ctrls.numWrRetry                         0                       # Number of times write queue was full causing retry
system.mem_ctrls.totGap                             0                       # Total gap between requests
system.mem_ctrls.readPktSize::0                     0                       # Read request sizes (log2)
system.mem_ctrls.readPktSize::1                     0                       # Read request sizes (log2)
system.mem_ctrls.readPktSize::2                     0                       # Read request sizes (log2)
system.mem_ctrls.readPktSize::3                     0                       # Read request sizes (log2)
system.mem_ctrls.readPktSize::4                     0                       # Read request sizes (log2)
system.mem_ctrls.readPktSize::5                     0                       # Read request sizes (log2)
system.mem_ctrls.readPktSize::6                     0                       # Read request sizes (log2)
system.mem_ctrls.writePktSize::0                    0                       # Write request sizes (log2)
system.mem_ctrls.writePktSize::1                    0                       # Write request sizes (log2)
system.mem_ctrls.writePktSize::2                    0                       # Write request sizes (log2)
system.mem_ctrls.writePktSize::3                    0                       # Write request sizes (log2)
system.mem_ctrls.writePktSize::4                    0                       # Write request sizes (log2)
system.mem_ctrls.writePktSize::5                    0                       # Write request sizes (log2)
system.mem_ctrls.writePktSize::6                    0                       # Write request sizes (log2)
system.mem_ctrls.rdQLenPdf::0                       0                       # What read queue length does an incoming req see
system.mem_ctrls.rdQLenPdf::1                       0                       # What read queue length does an incoming req see
system.mem_ctrls.rdQLenPdf::2                       0                       # What read queue length does an incoming req see
system.mem_ctrls.rdQLenPdf::3                       0                       # What read queue length does an incoming req see
system.mem_ctrls.rdQLenPdf::4                       0                       # What read queue length does an incoming req see
system.mem_ctrls.rdQLenPdf::5                       0                       # What read queue length does an incoming req see
system.mem_ctrls.rdQLenPdf::6                       0                       # What read queue length does an incoming req see
system.mem_ctrls.rdQLenPdf::7                       0                       # What read queue length does an incoming req see
system.mem_ctrls.rdQLenPdf::8                       0                       # What read queue length does an incoming req see
system.mem_ctrls.rdQLenPdf::9                       0                       # What read queue length does an incoming req see
system.mem_ctrls.rdQLenPdf::10                      0                       # What read queue length does an incoming req see
system.mem_ctrls.rdQLenPdf::11                      0                       # What read queue length does an incoming req see
system.mem_ctrls.rdQLenPdf::12                      0                       # What read queue length does an incoming req see
system.mem_ctrls.rdQLenPdf::13                      0                       # What read queue length does an incoming req see
system.mem_ctrls.rdQLenPdf::14                      0                       # What read queue length does an incoming req see
system.mem_ctrls.rdQLenPdf::15                      0                       # What read queue length does an incoming req see
system.mem_ctrls.rdQLenPdf::16                      0                       # What read queue length does an incoming req see
system.mem_ctrls.rdQLenPdf::17                      0                       # What read queue length does an incoming req see
system.mem_ctrls.rdQLenPdf::18                      0                       # What read queue length does an incoming req see
system.mem_ctrls.rdQLenPdf::19                      0                       # What read queue length does an incoming req see
system.mem_ctrls.rdQLenPdf::20                      0                       # What read queue length does an incoming req see
system.mem_ctrls.rdQLenPdf::21                      0                       # What read queue length does an incoming req see
system.mem_ctrls.rdQLenPdf::22                      0                       # What read queue length does an incoming req see
system.mem_ctrls.rdQLenPdf::23                      0                       # What read queue length does an incoming req see
system.mem_ctrls.rdQLenPdf::24                      0                       # What read queue length does an incoming req see
system.mem_ctrls.rdQLenPdf::25                      0                       # What read queue length does an incoming req see
system.mem_ctrls.rdQLenPdf::26                      0                       # What read queue length does an incoming req see
system.mem_ctrls.rdQLenPdf::27                      0                       # What read queue length does an incoming req see
system.mem_ctrls.rdQLenPdf::28                      0                       # What read queue length does an incoming req see
system.mem_ctrls.rdQLenPdf::29                      0                       # What read queue length does an incoming req see
system.mem_ctrls.rdQLenPdf::30                      0                       # What read queue length does an incoming req see
system.mem_ctrls.rdQLenPdf::31                      0                       # What read queue length does an incoming req see
system.mem_ctrls.wrQLenPdf::0                       0                       # What write queue length does an incoming req see
system.mem_ctrls.wrQLenPdf::1                       0                       # What write queue length does an incoming req see
system.mem_ctrls.wrQLenPdf::2                       0                       # What write queue length does an incoming req see
system.mem_ctrls.wrQLenPdf::3                       0                       # What write queue length does an incoming req see
system.mem_ctrls.wrQLenPdf::4                       0                       # What write queue length does an incoming req see
system.mem_ctrls.wrQLenPdf::5                       0                       # What write queue length does an incoming req see
system.mem_ctrls.wrQLenPdf::6                       0                       # What write queue length does an incoming req see
system.mem_ctrls.wrQLenPdf::7                       0                       # What write queue length does an incoming req see
system.mem_ctrls.wrQLenPdf::8                       0                       # What write queue length does an incoming req see
system.mem_ctrls.wrQLenPdf::9                       0                       # What write queue length does an incoming req see
system.mem_ctrls.wrQLenPdf::10                      0                       # What write queue length does an incoming req see
system.mem_ctrls.wrQLenPdf::11                      0                       # What write queue length does an incoming req see
system.mem_ctrls.wrQLenPdf::12                      0                       # What write queue length does an incoming req see
system.mem_ctrls.wrQLenPdf::13                      0                       # What write queue length does an incoming req see
system.mem_ctrls.wrQLenPdf::14                      0                       # What write queue length does an incoming req see
system.mem_ctrls.wrQLenPdf::15                      0                       # What write queue length does an incoming req see
system.mem_ctrls.wrQLenPdf::16                      0                       # What write queue length does an incoming req see
system.mem_ctrls.wrQLenPdf::17                      0                       # What write queue length does an incoming req see
system.mem_ctrls.wrQLenPdf::18                      0                       # What write queue length does an incoming req see
system.mem_ctrls.wrQLenPdf::19                      0                       # What write queue length does an incoming req see
system.mem_ctrls.wrQLenPdf::20                      0                       # What write queue length does an incoming req see
system.mem_ctrls.wrQLenPdf::21                      0                       # What write queue length does an incoming req see
system.mem_ctrls.wrQLenPdf::22                      0                       # What write queue length does an incoming req see
system.mem_ctrls.wrQLenPdf::23                      0                       # What write queue length does an incoming req see
system.mem_ctrls.wrQLenPdf::24                      0                       # What write queue length does an incoming req see
system.mem_ctrls.wrQLenPdf::25                      0                       # What write queue length does an incoming req see
system.mem_ctrls.wrQLenPdf::26                      0                       # What write queue length does an incoming req see
system.mem_ctrls.wrQLenPdf::27                      0                       # What write queue length does an incoming req see
system.mem_ctrls.wrQLenPdf::28                      0                       # What write queue length does an incoming req see
system.mem_ctrls.wrQLenPdf::29                      0                       # What write queue length does an incoming req see
system.mem_ctrls.wrQLenPdf::30                      0                       # What write queue length does an incoming req see
system.mem_ctrls.wrQLenPdf::31                      0                       # What write queue length does an incoming req see
system.mem_ctrls.wrQLenPdf::32                      0                       # What write queue length does an incoming req see
system.mem_ctrls.wrQLenPdf::33                      0                       # What write queue length does an incoming req see
system.mem_ctrls.wrQLenPdf::34                      0                       # What write queue length does an incoming req see
system.mem_ctrls.wrQLenPdf::35                      0                       # What write queue length does an incoming req see
system.mem_ctrls.wrQLenPdf::36                      0                       # What write queue length does an incoming req see
system.mem_ctrls.wrQLenPdf::37                      0                       # What write queue length does an incoming req see
system.mem_ctrls.wrQLenPdf::38                      0                       # What write queue length does an incoming req see
system.mem_ctrls.wrQLenPdf::39                      0                       # What write queue length does an incoming req see
system.mem_ctrls.wrQLenPdf::40                      0                       # What write queue length does an incoming req see
system.mem_ctrls.wrQLenPdf::41                      0                       # What write queue length does an incoming req see
system.mem_ctrls.wrQLenPdf::42                      0                       # What write queue length does an incoming req see
system.mem_ctrls.wrQLenPdf::43                      0                       # What write queue length does an incoming req see
system.mem_ctrls.wrQLenPdf::44                      0                       # What write queue length does an incoming req see
system.mem_ctrls.wrQLenPdf::45                      0                       # What write queue length does an incoming req see
system.mem_ctrls.wrQLenPdf::46                      0                       # What write queue length does an incoming req see
system.mem_ctrls.wrQLenPdf::47                      0                       # What write queue length does an incoming req see
system.mem_ctrls.wrQLenPdf::48                      0                       # What write queue length does an incoming req see
system.mem_ctrls.wrQLenPdf::49                      0                       # What write queue length does an incoming req see
system.mem_ctrls.wrQLenPdf::50                      0                       # What write queue length does an incoming req see
system.mem_ctrls.wrQLenPdf::51                      0                       # What write queue length does an incoming req see
system.mem_ctrls.wrQLenPdf::52                      0                       # What write queue length does an incoming req see
system.mem_ctrls.wrQLenPdf::53                      0                       # What write queue length does an incoming req see
system.mem_ctrls.wrQLenPdf::54                      0                       # What write queue length does an incoming req see
system.mem_ctrls.wrQLenPdf::55                      0                       # What write queue length does an incoming req see
system.mem_ctrls.wrQLenPdf::56                      0                       # What write queue length does an incoming req see
system.mem_ctrls.wrQLenPdf::57                      0                       # What write queue length does an incoming req see
system.mem_ctrls.wrQLenPdf::58                      0                       # What write queue length does an incoming req see
system.mem_ctrls.wrQLenPdf::59                      0                       # What write queue length does an incoming req see
system.mem_ctrls.wrQLenPdf::60                      0                       # What write queue length does an incoming req see
system.mem_ctrls.wrQLenPdf::61                      0                       # What write queue length does an incoming req see
system.mem_ctrls.wrQLenPdf::62                      0                       # What write queue length does an incoming req see
system.mem_ctrls.wrQLenPdf::63                      0                       # What write queue length does an incoming req see
system.mem_ctrls.totQLat                            0                       # Total ticks spent queuing
system.mem_ctrls.totMemAccLat                       0                       # Total ticks spent from burst creation until serviced by the DRAM
system.mem_ctrls.totBusLat                          0                       # Total ticks spent in databus transfers
system.mem_ctrls.avgQLat                          nan                       # Average queueing delay per DRAM burst
system.mem_ctrls.avgBusLat                        nan                       # Average bus latency per DRAM burst
system.mem_ctrls.avgMemAccLat                     nan                       # Average memory access latency per DRAM burst
system.mem_ctrls.avgRdBW                         0.00                       # Average DRAM read bandwidth in MiByte/s
system.mem_ctrls.avgWrBW                         0.00                       # Average achieved write bandwidth in MiByte/s
system.mem_ctrls.avgRdBWSys                      0.00                       # Average system read bandwidth in MiByte/s
system.mem_ctrls.avgWrBWSys                      0.00                       # Average system write bandwidth in MiByte/s
system.mem_ctrls.peakBW                      12800.00                       # Theoretical peak bandwidth in MiByte/s
system.mem_ctrls.busUtil                         0.00                       # Data bus utilization in percentage
system.mem_ctrls.busUtilRead                     0.00                       # Data bus utilization in percentage for reads
system.mem_ctrls.busUtilWrite                    0.00                       # Data bus utilization in percentage for writes
system.mem_ctrls.avgRdQLen                       0.00                       # Average read queue length when enqueuing
system.mem_ctrls.avgWrQLen                       0.00                       # Average write queue length when enqueuing
system.mem_ctrls.readRowHits                        0                       # Number of row buffer hits during reads
system.mem_ctrls.writeRowHits                       0                       # Number of row buffer hits during writes
system.mem_ctrls.readRowHitRate                   nan                       # Row buffer hit rate for reads
system.mem_ctrls.writeRowHitRate                  nan                       # Row buffer hit rate for writes
system.mem_ctrls.avgGap                           nan                       # Average gap between requests
system.mem_ctrls.pageHitRate                      nan                       # Row buffer hit rate, read and write combined
system.mem_ctrls_0.actEnergy                        0                       # Energy for activate commands per rank (pJ)
system.mem_ctrls_0.preEnergy                        0                       # Energy for precharge commands per rank (pJ)
system.mem_ctrls_0.readEnergy                       0                       # Energy for read commands per rank (pJ)
system.mem_ctrls_0.writeEnergy                      0                       # Energy for write commands per rank (pJ)
system.mem_ctrls_0.refreshEnergy                    0                       # Energy for refresh commands per rank (pJ)
system.mem_ctrls_0.actBackEnergy                    0                       # Energy for active background per rank (pJ)
system.mem_ctrls_0.preBackEnergy         70794627110400                       # Energy for precharge background per rank (pJ)
system.mem_ctrls_0.actPowerDownEnergy               0                       # Energy for active power-down per rank (pJ)
system.mem_ctrls_0.prePowerDownEnergy               0                       # Energy for precharge power-down per rank (pJ)
system.mem_ctrls_0.selfRefreshEnergy                0                       # Energy for self refresh per rank (pJ)
system.mem_ctrls_0.totalEnergy           70794627110400                       # Total energy per rank (pJ)
system.mem_ctrls_0.averagePower                   384                       # Core power per rank (mW)
system.mem_ctrls_0.totalIdleTime                    0                       # Total Idle time Per DRAM Rank
system.mem_ctrls_0.memoryStateTime::IDLE 184361008100000                       # Time in different power states
system.mem_ctrls_0.memoryStateTime::REF             0                       # Time in different power states
system.mem_ctrls_0.memoryStateTime::SREF            0                       # Time in different power states
system.mem_ctrls_0.memoryStateTime::PRE_PDN            0                       # Time in different power states
system.mem_ctrls_0.memoryStateTime::ACT             0                       # Time in different power states
system.mem_ctrls_0.memoryStateTime::ACT_PDN            0                       # Time in different power states
system.mem_ctrls_1.actEnergy                        0                       # Energy for activate commands per rank (pJ)
system.mem_ctrls_1.preEnergy                        0                       # Energy for precharge commands per rank (pJ)
system.mem_ctrls_1.readEnergy                       0                       # Energy for read commands per rank (pJ)
system.mem_ctrls_1.writeEnergy                      0                       # Energy for write commands per rank (pJ)
system.mem_ctrls_1.refreshEnergy                    0                       # Energy for refresh commands per rank (pJ)
system.mem_ctrls_1.actBackEnergy                    0                       # Energy for active background per rank (pJ)
system.mem_ctrls_1.preBackEnergy         70794627110400                       # Energy for precharge background per rank (pJ)
system.mem_ctrls_1.actPowerDownEnergy               0                       # Energy for active power-down per rank (pJ)
system.mem_ctrls_1.prePowerDownEnergy               0                       # Energy for precharge power-down per rank (pJ)
system.mem_ctrls_1.selfRefreshEnergy                0                       # Energy for self refresh per rank (pJ)
system.mem_ctrls_1.totalEnergy           70794627110400                       # Total energy per rank (pJ)
system.mem_ctrls_1.averagePower                   384                       # Core power per rank (mW)
system.mem_ctrls_1.totalIdleTime                    0                       # Total Idle time Per DRAM Rank
system.mem_ctrls_1.memoryStateTime::IDLE 184361008100000                       # Time in different power states
system.mem_ctrls_1.memoryStateTime::REF             0                       # Time in different power states
system.mem_ctrls_1.memoryStateTime::SREF            0                       # Time in different power states
system.mem_ctrls_1.memoryStateTime::PRE_PDN            0                       # Time in different power states
system.mem_ctrls_1.memoryStateTime::ACT             0                       # Time in different power states
system.mem_ctrls_1.memoryStateTime::ACT_PDN            0                       # Time in different power states
system.pwrStateResidencyTicks::UNDEFINED 184361008100000                       # Cumulative time (in ticks) in various power states
system.cpu_voltage_domain.voltage                   1                       # Voltage in Volts
system.cpu_clk_domain.clock                       500                       # Clock period in ticks
system.cpu0.dtb.walker.pwrStateResidencyTicks::UNDEFINED 184361008100000                       # Cumulative time (in ticks) in various power states
system.cpu0.dtb.rdAccesses                32325074603                       # TLB accesses on read requests
system.cpu0.dtb.wrAccesses                17830186206                       # TLB accesses on write requests
system.cpu0.dtb.rdMisses                    399178635                       # TLB misses on read requests
system.cpu0.dtb.wrMisses                     56943834                       # TLB misses on write requests
system.cpu0.apic_clk_domain.clock                8000                       # Clock period in ticks
system.cpu0.interrupts.pwrStateResidencyTicks::UNDEFINED 184361008100000                       # Cumulative time (in ticks) in various power states
system.cpu0.itb.walker.pwrStateResidencyTicks::UNDEFINED 184361008100000                       # Cumulative time (in ticks) in various power states
system.cpu0.itb.rdAccesses                          0                       # TLB accesses on read requests
system.cpu0.itb.wrAccesses               209313965353                       # TLB accesses on write requests
system.cpu0.itb.rdMisses                            0                       # TLB misses on read requests
system.cpu0.itb.wrMisses                          234                       # TLB misses on write requests
system.cpu0.workload.numSyscalls                81872                       # Number of system calls
system.cpu0.pwrStateResidencyTicks::ON   184361008100000                       # Cumulative time (in ticks) in various power states
system.cpu0.numCycles                    368723495825                       # number of cpu cycles simulated
system.cpu0.numWorkItemsStarted                     0                       # number of work items this cpu started
system.cpu0.numWorkItemsCompleted                   0                       # number of work items this cpu completed
system.cpu0.committedInsts               161358051090                       # Number of instructions committed
system.cpu0.committedOps                 320767581562                       # Number of ops (including micro ops) committed
system.cpu0.num_int_alu_accesses         318604180840                       # Number of integer alu accesses
system.cpu0.num_fp_alu_accesses            1659032711                       # Number of float alu accesses
system.cpu0.num_vec_alu_accesses                    0                       # Number of vector alu accesses
system.cpu0.num_func_calls                 4223500703                       # number of times a function call or return occured
system.cpu0.num_conditional_control_insts  29012223335                       # number of instructions that are conditional controls
system.cpu0.num_int_insts                318604180840                       # number of integer instructions
system.cpu0.num_fp_insts                   1659032711                       # number of float instructions
system.cpu0.num_vec_insts                           0                       # number of vector instructions
system.cpu0.num_int_register_reads       641898144757                       # number of times the integer registers were read
system.cpu0.num_int_register_writes      278722094930                       # number of times the integer registers were written
system.cpu0.num_fp_register_reads          1992042628                       # number of times the floating registers were read
system.cpu0.num_fp_register_writes          911151452                       # number of times the floating registers were written
system.cpu0.num_vec_register_reads                  0                       # number of times the vector registers were read
system.cpu0.num_vec_register_writes                 0                       # number of times the vector registers were written
system.cpu0.num_cc_register_reads        227185454668                       # number of times the CC registers were read
system.cpu0.num_cc_register_writes       110786003341                       # number of times the CC registers were written
system.cpu0.num_mem_refs                  50121403612                       # number of memory refs
system.cpu0.num_load_insts                32299769027                       # Number of load instructions
system.cpu0.num_store_insts               17821634585                       # Number of store instructions
system.cpu0.num_idle_cycles                         0                       # Number of idle cycles
system.cpu0.num_busy_cycles              368723495825                       # Number of busy cycles
system.cpu0.not_idle_fraction                       1                       # Percentage of non-idle cycles
system.cpu0.idle_fraction                           0                       # Percentage of idle cycles
system.cpu0.Branches                      36104126526                       # Number of branches fetched
system.cpu0.op_class::No_OpClass           1382529036      0.43%      0.43% # Class of executed instruction
system.cpu0.op_class::IntAlu             261883220890     81.64%     82.07% # Class of executed instruction
system.cpu0.op_class::IntMult                34837470      0.01%     82.08% # Class of executed instruction
system.cpu0.op_class::IntDiv               6660815580      2.08%     84.16% # Class of executed instruction
system.cpu0.op_class::FloatAdd              684774974      0.21%     84.37% # Class of executed instruction
system.cpu0.op_class::FloatCmp                      0      0.00%     84.37% # Class of executed instruction
system.cpu0.op_class::FloatCvt                      0      0.00%     84.37% # Class of executed instruction
system.cpu0.op_class::FloatMult                     0      0.00%     84.37% # Class of executed instruction
system.cpu0.op_class::FloatMultAcc                  0      0.00%     84.37% # Class of executed instruction
system.cpu0.op_class::FloatDiv                      0      0.00%     84.37% # Class of executed instruction
system.cpu0.op_class::FloatMisc                     0      0.00%     84.37% # Class of executed instruction
system.cpu0.op_class::FloatSqrt                     0      0.00%     84.37% # Class of executed instruction
system.cpu0.op_class::SimdAdd                       0      0.00%     84.37% # Class of executed instruction
system.cpu0.op_class::SimdAddAcc                    0      0.00%     84.37% # Class of executed instruction
system.cpu0.op_class::SimdAlu                       0      0.00%     84.37% # Class of executed instruction
system.cpu0.op_class::SimdCmp                       0      0.00%     84.37% # Class of executed instruction
system.cpu0.op_class::SimdCvt                       0      0.00%     84.37% # Class of executed instruction
system.cpu0.op_class::SimdMisc                      0      0.00%     84.37% # Class of executed instruction
system.cpu0.op_class::SimdMult                      0      0.00%     84.37% # Class of executed instruction
system.cpu0.op_class::SimdMultAcc                   0      0.00%     84.37% # Class of executed instruction
system.cpu0.op_class::SimdShift                     0      0.00%     84.37% # Class of executed instruction
system.cpu0.op_class::SimdShiftAcc                  0      0.00%     84.37% # Class of executed instruction
system.cpu0.op_class::SimdSqrt                      0      0.00%     84.37% # Class of executed instruction
system.cpu0.op_class::SimdFloatAdd                  0      0.00%     84.37% # Class of executed instruction
system.cpu0.op_class::SimdFloatAlu                  0      0.00%     84.37% # Class of executed instruction
system.cpu0.op_class::SimdFloatCmp                  0      0.00%     84.37% # Class of executed instruction
system.cpu0.op_class::SimdFloatCvt                  0      0.00%     84.37% # Class of executed instruction
system.cpu0.op_class::SimdFloatDiv                  0      0.00%     84.37% # Class of executed instruction
system.cpu0.op_class::SimdFloatMisc                 0      0.00%     84.37% # Class of executed instruction
system.cpu0.op_class::SimdFloatMult                 0      0.00%     84.37% # Class of executed instruction
system.cpu0.op_class::SimdFloatMultAcc              0      0.00%     84.37% # Class of executed instruction
system.cpu0.op_class::SimdFloatSqrt                 0      0.00%     84.37% # Class of executed instruction
system.cpu0.op_class::MemRead             32089811536     10.00%     94.38% # Class of executed instruction
system.cpu0.op_class::MemWrite            17149923047      5.35%     99.73% # Class of executed instruction
system.cpu0.op_class::FloatMemRead          209957491      0.07%     99.79% # Class of executed instruction
system.cpu0.op_class::FloatMemWrite         671711538      0.21%    100.00% # Class of executed instruction
system.cpu0.op_class::IprAccess                     0      0.00%    100.00% # Class of executed instruction
system.cpu0.op_class::InstPrefetch                  0      0.00%    100.00% # Class of executed instruction
system.cpu0.op_class::total              320767581562                       # Class of executed instruction
system.cpu0.dcache.tags.pwrStateResidencyTicks::UNDEFINED 184361008100000                       # Cumulative time (in ticks) in various power states
system.cpu0.dcache.tags.replacements        783260584                       # number of replacements
system.cpu0.dcache.tags.tagsinuse         1023.998792                       # Cycle average of tags in use
system.cpu0.dcache.tags.total_refs        49371999201                       # Total number of references to valid blocks.
system.cpu0.dcache.tags.sampled_refs        783261608                       # Sample count of references to valid blocks.
system.cpu0.dcache.tags.avg_refs            63.033856                       # Average number of references to valid blocks.
system.cpu0.dcache.tags.warmup_cycle       1107054500                       # Cycle when the warmup percentage was hit.
system.cpu0.dcache.tags.occ_blocks::cpu0.data  1023.998792                       # Average occupied blocks per requestor
system.cpu0.dcache.tags.occ_percent::cpu0.data     0.999999                       # Average percentage of cache occupancy
system.cpu0.dcache.tags.occ_percent::total     0.999999                       # Average percentage of cache occupancy
system.cpu0.dcache.tags.occ_task_id_blocks::1024         1024                       # Occupied blocks per task id
system.cpu0.dcache.tags.age_task_id_blocks_1024::0          100                       # Occupied blocks per task id
system.cpu0.dcache.tags.age_task_id_blocks_1024::1          475                       # Occupied blocks per task id
system.cpu0.dcache.tags.age_task_id_blocks_1024::2          444                       # Occupied blocks per task id
system.cpu0.dcache.tags.age_task_id_blocks_1024::3            5                       # Occupied blocks per task id
system.cpu0.dcache.tags.occ_task_id_percent::1024            1                       # Percentage of cache occupancy per task id
system.cpu0.dcache.tags.tag_accesses     101093783226                       # Number of tag accesses
system.cpu0.dcache.tags.data_accesses    101093783226                       # Number of data accesses
system.cpu0.dcache.pwrStateResidencyTicks::UNDEFINED 184361008100000                       # Cumulative time (in ticks) in various power states
system.cpu0.dcache.ReadReq_hits::cpu0.data  31674610676                       # number of ReadReq hits
system.cpu0.dcache.ReadReq_hits::total    31674610676                       # number of ReadReq hits
system.cpu0.dcache.WriteReq_hits::cpu0.data  17697388525                       # number of WriteReq hits
system.cpu0.dcache.WriteReq_hits::total   17697388525                       # number of WriteReq hits
system.cpu0.dcache.demand_hits::cpu0.data  49371999201                       # number of demand (read+write) hits
system.cpu0.dcache.demand_hits::total     49371999201                       # number of demand (read+write) hits
system.cpu0.dcache.overall_hits::cpu0.data  49371999201                       # number of overall hits
system.cpu0.dcache.overall_hits::total    49371999201                       # number of overall hits
system.cpu0.dcache.ReadReq_misses::cpu0.data    650463927                       # number of ReadReq misses
system.cpu0.dcache.ReadReq_misses::total    650463927                       # number of ReadReq misses
system.cpu0.dcache.WriteReq_misses::cpu0.data    132797681                       # number of WriteReq misses
system.cpu0.dcache.WriteReq_misses::total    132797681                       # number of WriteReq misses
system.cpu0.dcache.demand_misses::cpu0.data    783261608                       # number of demand (read+write) misses
system.cpu0.dcache.demand_misses::total     783261608                       # number of demand (read+write) misses
system.cpu0.dcache.overall_misses::cpu0.data    783261608                       # number of overall misses
system.cpu0.dcache.overall_misses::total    783261608                       # number of overall misses
system.cpu0.dcache.ReadReq_accesses::cpu0.data  32325074603                       # number of ReadReq accesses(hits+misses)
system.cpu0.dcache.ReadReq_accesses::total  32325074603                       # number of ReadReq accesses(hits+misses)
system.cpu0.dcache.WriteReq_accesses::cpu0.data  17830186206                       # number of WriteReq accesses(hits+misses)
system.cpu0.dcache.WriteReq_accesses::total  17830186206                       # number of WriteReq accesses(hits+misses)
system.cpu0.dcache.demand_accesses::cpu0.data  50155260809                       # number of demand (read+write) accesses
system.cpu0.dcache.demand_accesses::total  50155260809                       # number of demand (read+write) accesses
system.cpu0.dcache.overall_accesses::cpu0.data  50155260809                       # number of overall (read+write) accesses
system.cpu0.dcache.overall_accesses::total  50155260809                       # number of overall (read+write) accesses
system.cpu0.dcache.ReadReq_miss_rate::cpu0.data     0.020123                       # miss rate for ReadReq accesses
system.cpu0.dcache.ReadReq_miss_rate::total     0.020123                       # miss rate for ReadReq accesses
system.cpu0.dcache.WriteReq_miss_rate::cpu0.data     0.007448                       # miss rate for WriteReq accesses
system.cpu0.dcache.WriteReq_miss_rate::total     0.007448                       # miss rate for WriteReq accesses
system.cpu0.dcache.demand_miss_rate::cpu0.data     0.015617                       # miss rate for demand accesses
system.cpu0.dcache.demand_miss_rate::total     0.015617                       # miss rate for demand accesses
system.cpu0.dcache.overall_miss_rate::cpu0.data     0.015617                       # miss rate for overall accesses
system.cpu0.dcache.overall_miss_rate::total     0.015617                       # miss rate for overall accesses
system.cpu0.dcache.blocked_cycles::no_mshrs            0                       # number of cycles access was blocked
system.cpu0.dcache.blocked_cycles::no_targets            0                       # number of cycles access was blocked
system.cpu0.dcache.blocked::no_mshrs                0                       # number of cycles access was blocked
system.cpu0.dcache.blocked::no_targets              0                       # number of cycles access was blocked
system.cpu0.dcache.avg_blocked_cycles::no_mshrs          nan                       # average number of cycles each access was blocked
system.cpu0.dcache.avg_blocked_cycles::no_targets          nan                       # average number of cycles each access was blocked
system.cpu0.dcache.writebacks::writebacks    365812218                       # number of writebacks
system.cpu0.dcache.writebacks::total        365812218                       # number of writebacks
system.cpu0.dtb_walker_cache.tags.pwrStateResidencyTicks::UNDEFINED 184361008100000                       # Cumulative time (in ticks) in various power states
system.cpu0.dtb_walker_cache.tags.replacements            0                       # number of replacements
system.cpu0.dtb_walker_cache.tags.tagsinuse            0                       # Cycle average of tags in use
system.cpu0.dtb_walker_cache.tags.total_refs            0                       # Total number of references to valid blocks.
system.cpu0.dtb_walker_cache.tags.sampled_refs            0                       # Sample count of references to valid blocks.
system.cpu0.dtb_walker_cache.tags.avg_refs          nan                       # Average number of references to valid blocks.
system.cpu0.dtb_walker_cache.tags.warmup_cycle            0                       # Cycle when the warmup percentage was hit.
system.cpu0.dtb_walker_cache.tags.tag_accesses            0                       # Number of tag accesses
system.cpu0.dtb_walker_cache.tags.data_accesses            0                       # Number of data accesses
system.cpu0.dtb_walker_cache.pwrStateResidencyTicks::UNDEFINED 184361008100000                       # Cumulative time (in ticks) in various power states
system.cpu0.dtb_walker_cache.blocked_cycles::no_mshrs            0                       # number of cycles access was blocked
system.cpu0.dtb_walker_cache.blocked_cycles::no_targets            0                       # number of cycles access was blocked
system.cpu0.dtb_walker_cache.blocked::no_mshrs            0                       # number of cycles access was blocked
system.cpu0.dtb_walker_cache.blocked::no_targets            0                       # number of cycles access was blocked
system.cpu0.dtb_walker_cache.avg_blocked_cycles::no_mshrs          nan                       # average number of cycles each access was blocked
system.cpu0.dtb_walker_cache.avg_blocked_cycles::no_targets          nan                       # average number of cycles each access was blocked
system.cpu0.icache.tags.pwrStateResidencyTicks::UNDEFINED 184361008100000                       # Cumulative time (in ticks) in various power states
system.cpu0.icache.tags.replacements         16248869                       # number of replacements
system.cpu0.icache.tags.tagsinuse          511.999675                       # Cycle average of tags in use
system.cpu0.icache.tags.total_refs       162053075716                       # Total number of references to valid blocks.
system.cpu0.icache.tags.sampled_refs         16249381                       # Sample count of references to valid blocks.
system.cpu0.icache.tags.avg_refs          9972.876857                       # Average number of references to valid blocks.
system.cpu0.icache.tags.warmup_cycle        699766000                       # Cycle when the warmup percentage was hit.
system.cpu0.icache.tags.occ_blocks::cpu0.inst   511.999675                       # Average occupied blocks per requestor
system.cpu0.icache.tags.occ_percent::cpu0.inst     0.999999                       # Average percentage of cache occupancy
system.cpu0.icache.tags.occ_percent::total     0.999999                       # Average percentage of cache occupancy
system.cpu0.icache.tags.occ_task_id_blocks::1024          512                       # Occupied blocks per task id
system.cpu0.icache.tags.age_task_id_blocks_1024::0           49                       # Occupied blocks per task id
system.cpu0.icache.tags.age_task_id_blocks_1024::1           22                       # Occupied blocks per task id
system.cpu0.icache.tags.age_task_id_blocks_1024::2          209                       # Occupied blocks per task id
system.cpu0.icache.tags.age_task_id_blocks_1024::3            1                       # Occupied blocks per task id
system.cpu0.icache.tags.age_task_id_blocks_1024::4          231                       # Occupied blocks per task id
system.cpu0.icache.tags.occ_task_id_percent::1024            1                       # Percentage of cache occupancy per task id
system.cpu0.icache.tags.tag_accesses     418644180087                       # Number of tag accesses
system.cpu0.icache.tags.data_accesses    418644180087                       # Number of data accesses
system.cpu0.icache.pwrStateResidencyTicks::UNDEFINED 184361008100000                       # Cumulative time (in ticks) in various power states
system.cpu0.icache.ReadReq_hits::cpu0.inst 209297715972                       # number of ReadReq hits
system.cpu0.icache.ReadReq_hits::total   209297715972                       # number of ReadReq hits
system.cpu0.icache.demand_hits::cpu0.inst 209297715972                       # number of demand (read+write) hits
system.cpu0.icache.demand_hits::total    209297715972                       # number of demand (read+write) hits
system.cpu0.icache.overall_hits::cpu0.inst 209297715972                       # number of overall hits
system.cpu0.icache.overall_hits::total   209297715972                       # number of overall hits
system.cpu0.icache.ReadReq_misses::cpu0.inst     16249381                       # number of ReadReq misses
system.cpu0.icache.ReadReq_misses::total     16249381                       # number of ReadReq misses
system.cpu0.icache.demand_misses::cpu0.inst     16249381                       # number of demand (read+write) misses
system.cpu0.icache.demand_misses::total      16249381                       # number of demand (read+write) misses
system.cpu0.icache.overall_misses::cpu0.inst     16249381                       # number of overall misses
system.cpu0.icache.overall_misses::total     16249381                       # number of overall misses
system.cpu0.icache.ReadReq_accesses::cpu0.inst 209313965353                       # number of ReadReq accesses(hits+misses)
system.cpu0.icache.ReadReq_accesses::total 209313965353                       # number of ReadReq accesses(hits+misses)
system.cpu0.icache.demand_accesses::cpu0.inst 209313965353                       # number of demand (read+write) accesses
system.cpu0.icache.demand_accesses::total 209313965353                       # number of demand (read+write) accesses
system.cpu0.icache.overall_accesses::cpu0.inst 209313965353                       # number of overall (read+write) accesses
system.cpu0.icache.overall_accesses::total 209313965353                       # number of overall (read+write) accesses
system.cpu0.icache.ReadReq_miss_rate::cpu0.inst     0.000078                       # miss rate for ReadReq accesses
system.cpu0.icache.ReadReq_miss_rate::total     0.000078                       # miss rate for ReadReq accesses
system.cpu0.icache.demand_miss_rate::cpu0.inst     0.000078                       # miss rate for demand accesses
system.cpu0.icache.demand_miss_rate::total     0.000078                       # miss rate for demand accesses
system.cpu0.icache.overall_miss_rate::cpu0.inst     0.000078                       # miss rate for overall accesses
system.cpu0.icache.overall_miss_rate::total     0.000078                       # miss rate for overall accesses
system.cpu0.icache.blocked_cycles::no_mshrs            0                       # number of cycles access was blocked
system.cpu0.icache.blocked_cycles::no_targets            0                       # number of cycles access was blocked
system.cpu0.icache.blocked::no_mshrs                0                       # number of cycles access was blocked
system.cpu0.icache.blocked::no_targets              0                       # number of cycles access was blocked
system.cpu0.icache.avg_blocked_cycles::no_mshrs          nan                       # average number of cycles each access was blocked
system.cpu0.icache.avg_blocked_cycles::no_targets          nan                       # average number of cycles each access was blocked
system.cpu0.icache.writebacks::writebacks     16248869                       # number of writebacks
system.cpu0.icache.writebacks::total         16248869                       # number of writebacks
system.cpu0.itb_walker_cache.tags.pwrStateResidencyTicks::UNDEFINED 184361008100000                       # Cumulative time (in ticks) in various power states
system.cpu0.itb_walker_cache.tags.replacements            0                       # number of replacements
system.cpu0.itb_walker_cache.tags.tagsinuse            0                       # Cycle average of tags in use
system.cpu0.itb_walker_cache.tags.total_refs            0                       # Total number of references to valid blocks.
system.cpu0.itb_walker_cache.tags.sampled_refs            0                       # Sample count of references to valid blocks.
system.cpu0.itb_walker_cache.tags.avg_refs          nan                       # Average number of references to valid blocks.
system.cpu0.itb_walker_cache.tags.warmup_cycle            0                       # Cycle when the warmup percentage was hit.
system.cpu0.itb_walker_cache.tags.tag_accesses            0                       # Number of tag accesses
system.cpu0.itb_walker_cache.tags.data_accesses            0                       # Number of data accesses
system.cpu0.itb_walker_cache.pwrStateResidencyTicks::UNDEFINED 184361008100000                       # Cumulative time (in ticks) in various power states
system.cpu0.itb_walker_cache.blocked_cycles::no_mshrs            0                       # number of cycles access was blocked
system.cpu0.itb_walker_cache.blocked_cycles::no_targets            0                       # number of cycles access was blocked
system.cpu0.itb_walker_cache.blocked::no_mshrs            0                       # number of cycles access was blocked
system.cpu0.itb_walker_cache.blocked::no_targets            0                       # number of cycles access was blocked
system.cpu0.itb_walker_cache.avg_blocked_cycles::no_mshrs          nan                       # average number of cycles each access was blocked
system.cpu0.itb_walker_cache.avg_blocked_cycles::no_targets          nan                       # average number of cycles each access was blocked
system.cpu1.dtb.walker.pwrStateResidencyTicks::UNDEFINED 184361008100000                       # Cumulative time (in ticks) in various power states
system.cpu1.dtb.rdAccesses                          0                       # TLB accesses on read requests
system.cpu1.dtb.wrAccesses                          0                       # TLB accesses on write requests
system.cpu1.dtb.rdMisses                            0                       # TLB misses on read requests
system.cpu1.dtb.wrMisses                            0                       # TLB misses on write requests
system.cpu1.apic_clk_domain.clock                8000                       # Clock period in ticks
system.cpu1.interrupts.pwrStateResidencyTicks::UNDEFINED 184361008100000                       # Cumulative time (in ticks) in various power states
system.cpu1.itb.walker.pwrStateResidencyTicks::UNDEFINED 184361008100000                       # Cumulative time (in ticks) in various power states
system.cpu1.itb.rdAccesses                          0                       # TLB accesses on read requests
system.cpu1.itb.wrAccesses                          0                       # TLB accesses on write requests
system.cpu1.itb.rdMisses                            0                       # TLB misses on read requests
system.cpu1.itb.wrMisses                            0                       # TLB misses on write requests
system.cpu1.pwrStateResidencyTicks::ON   184361008100000                       # Cumulative time (in ticks) in various power states
system.cpu1.numCycles                               0                       # number of cpu cycles simulated
system.cpu1.numWorkItemsStarted                     0                       # number of work items this cpu started
system.cpu1.numWorkItemsCompleted                   0                       # number of work items this cpu completed
system.cpu1.committedInsts                          0                       # Number of instructions committed
system.cpu1.committedOps                            0                       # Number of ops (including micro ops) committed
system.cpu1.num_int_alu_accesses                    0                       # Number of integer alu accesses
system.cpu1.num_fp_alu_accesses                     0                       # Number of float alu accesses
system.cpu1.num_vec_alu_accesses                    0                       # Number of vector alu accesses
system.cpu1.num_func_calls                          0                       # number of times a function call or return occured
system.cpu1.num_conditional_control_insts            0                       # number of instructions that are conditional controls
system.cpu1.num_int_insts                           0                       # number of integer instructions
system.cpu1.num_fp_insts                            0                       # number of float instructions
system.cpu1.num_vec_insts                           0                       # number of vector instructions
system.cpu1.num_int_register_reads                  0                       # number of times the integer registers were read
system.cpu1.num_int_register_writes                 0                       # number of times the integer registers were written
system.cpu1.num_fp_register_reads                   0                       # number of times the floating registers were read
system.cpu1.num_fp_register_writes                  0                       # number of times the floating registers were written
system.cpu1.num_vec_register_reads                  0                       # number of times the vector registers were read
system.cpu1.num_vec_register_writes                 0                       # number of times the vector registers were written
system.cpu1.num_mem_refs                            0                       # number of memory refs
system.cpu1.num_load_insts                          0                       # Number of load instructions
system.cpu1.num_store_insts                         0                       # Number of store instructions
system.cpu1.num_idle_cycles                         0                       # Number of idle cycles
system.cpu1.num_busy_cycles                         0                       # Number of busy cycles
system.cpu1.not_idle_fraction                       0                       # Percentage of non-idle cycles
system.cpu1.idle_fraction                           1                       # Percentage of idle cycles
system.cpu1.op_class::No_OpClass                    0                       # Class of executed instruction
system.cpu1.op_class::IntAlu                        0                       # Class of executed instruction
system.cpu1.op_class::IntMult                       0                       # Class of executed instruction
system.cpu1.op_class::IntDiv                        0                       # Class of executed instruction
system.cpu1.op_class::FloatAdd                      0                       # Class of executed instruction
system.cpu1.op_class::FloatCmp                      0                       # Class of executed instruction
system.cpu1.op_class::FloatCvt                      0                       # Class of executed instruction
system.cpu1.op_class::FloatMult                     0                       # Class of executed instruction
system.cpu1.op_class::FloatMultAcc                  0                       # Class of executed instruction
system.cpu1.op_class::FloatDiv                      0                       # Class of executed instruction
system.cpu1.op_class::FloatMisc                     0                       # Class of executed instruction
system.cpu1.op_class::FloatSqrt                     0                       # Class of executed instruction
system.cpu1.op_class::SimdAdd                       0                       # Class of executed instruction
system.cpu1.op_class::SimdAddAcc                    0                       # Class of executed instruction
system.cpu1.op_class::SimdAlu                       0                       # Class of executed instruction
system.cpu1.op_class::SimdCmp                       0                       # Class of executed instruction
system.cpu1.op_class::SimdCvt                       0                       # Class of executed instruction
system.cpu1.op_class::SimdMisc                      0                       # Class of executed instruction
system.cpu1.op_class::SimdMult                      0                       # Class of executed instruction
system.cpu1.op_class::SimdMultAcc                   0                       # Class of executed instruction
system.cpu1.op_class::SimdShift                     0                       # Class of executed instruction
system.cpu1.op_class::SimdShiftAcc                  0                       # Class of executed instruction
system.cpu1.op_class::SimdSqrt                      0                       # Class of executed instruction
system.cpu1.op_class::SimdFloatAdd                  0                       # Class of executed instruction
system.cpu1.op_class::SimdFloatAlu                  0                       # Class of executed instruction
system.cpu1.op_class::SimdFloatCmp                  0                       # Class of executed instruction
system.cpu1.op_class::SimdFloatCvt                  0                       # Class of executed instruction
system.cpu1.op_class::SimdFloatDiv                  0                       # Class of executed instruction
system.cpu1.op_class::SimdFloatMisc                 0                       # Class of executed instruction
system.cpu1.op_class::SimdFloatMult                 0                       # Class of executed instruction
system.cpu1.op_class::SimdFloatMultAcc              0                       # Class of executed instruction
system.cpu1.op_class::SimdFloatSqrt                 0                       # Class of executed instruction
system.cpu1.op_class::MemRead                       0                       # Class of executed instruction
system.cpu1.op_class::MemWrite                      0                       # Class of executed instruction
system.cpu1.op_class::FloatMemRead                  0                       # Class of executed instruction
system.cpu1.op_class::FloatMemWrite                 0                       # Class of executed instruction
system.cpu1.op_class::IprAccess                     0                       # Class of executed instruction
system.cpu1.op_class::InstPrefetch                  0                       # Class of executed instruction
system.cpu1.op_class::total                         0                       # Class of executed instruction
system.cpu1.dcache.tags.pwrStateResidencyTicks::UNDEFINED 184361008100000                       # Cumulative time (in ticks) in various power states
system.cpu1.dcache.tags.replacements                0                       # number of replacements
system.cpu1.dcache.tags.tagsinuse                   0                       # Cycle average of tags in use
system.cpu1.dcache.tags.total_refs                  0                       # Total number of references to valid blocks.
system.cpu1.dcache.tags.sampled_refs                0                       # Sample count of references to valid blocks.
system.cpu1.dcache.tags.avg_refs                  nan                       # Average number of references to valid blocks.
system.cpu1.dcache.tags.warmup_cycle                0                       # Cycle when the warmup percentage was hit.
system.cpu1.dcache.tags.tag_accesses                0                       # Number of tag accesses
system.cpu1.dcache.tags.data_accesses               0                       # Number of data accesses
system.cpu1.dcache.pwrStateResidencyTicks::UNDEFINED 184361008100000                       # Cumulative time (in ticks) in various power states
system.cpu1.dcache.blocked_cycles::no_mshrs            0                       # number of cycles access was blocked
system.cpu1.dcache.blocked_cycles::no_targets            0                       # number of cycles access was blocked
system.cpu1.dcache.blocked::no_mshrs                0                       # number of cycles access was blocked
system.cpu1.dcache.blocked::no_targets              0                       # number of cycles access was blocked
system.cpu1.dcache.avg_blocked_cycles::no_mshrs          nan                       # average number of cycles each access was blocked
system.cpu1.dcache.avg_blocked_cycles::no_targets          nan                       # average number of cycles each access was blocked
system.cpu1.dtb_walker_cache.tags.pwrStateResidencyTicks::UNDEFINED 184361008100000                       # Cumulative time (in ticks) in various power states
system.cpu1.dtb_walker_cache.tags.replacements            0                       # number of replacements
system.cpu1.dtb_walker_cache.tags.tagsinuse            0                       # Cycle average of tags in use
system.cpu1.dtb_walker_cache.tags.total_refs            0                       # Total number of references to valid blocks.
system.cpu1.dtb_walker_cache.tags.sampled_refs            0                       # Sample count of references to valid blocks.
system.cpu1.dtb_walker_cache.tags.avg_refs          nan                       # Average number of references to valid blocks.
system.cpu1.dtb_walker_cache.tags.warmup_cycle            0                       # Cycle when the warmup percentage was hit.
system.cpu1.dtb_walker_cache.tags.tag_accesses            0                       # Number of tag accesses
system.cpu1.dtb_walker_cache.tags.data_accesses            0                       # Number of data accesses
system.cpu1.dtb_walker_cache.pwrStateResidencyTicks::UNDEFINED 184361008100000                       # Cumulative time (in ticks) in various power states
system.cpu1.dtb_walker_cache.blocked_cycles::no_mshrs            0                       # number of cycles access was blocked
system.cpu1.dtb_walker_cache.blocked_cycles::no_targets            0                       # number of cycles access was blocked
system.cpu1.dtb_walker_cache.blocked::no_mshrs            0                       # number of cycles access was blocked
system.cpu1.dtb_walker_cache.blocked::no_targets            0                       # number of cycles access was blocked
system.cpu1.dtb_walker_cache.avg_blocked_cycles::no_mshrs          nan                       # average number of cycles each access was blocked
system.cpu1.dtb_walker_cache.avg_blocked_cycles::no_targets          nan                       # average number of cycles each access was blocked
system.cpu1.icache.tags.pwrStateResidencyTicks::UNDEFINED 184361008100000                       # Cumulative time (in ticks) in various power states
system.cpu1.icache.tags.replacements                0                       # number of replacements
system.cpu1.icache.tags.tagsinuse                   0                       # Cycle average of tags in use
system.cpu1.icache.tags.total_refs                  0                       # Total number of references to valid blocks.
system.cpu1.icache.tags.sampled_refs                0                       # Sample count of references to valid blocks.
system.cpu1.icache.tags.avg_refs                  nan                       # Average number of references to valid blocks.
system.cpu1.icache.tags.warmup_cycle                0                       # Cycle when the warmup percentage was hit.
system.cpu1.icache.tags.tag_accesses                0                       # Number of tag accesses
system.cpu1.icache.tags.data_accesses               0                       # Number of data accesses
system.cpu1.icache.pwrStateResidencyTicks::UNDEFINED 184361008100000                       # Cumulative time (in ticks) in various power states
system.cpu1.icache.blocked_cycles::no_mshrs            0                       # number of cycles access was blocked
system.cpu1.icache.blocked_cycles::no_targets            0                       # number of cycles access was blocked
system.cpu1.icache.blocked::no_mshrs                0                       # number of cycles access was blocked
system.cpu1.icache.blocked::no_targets              0                       # number of cycles access was blocked
system.cpu1.icache.avg_blocked_cycles::no_mshrs          nan                       # average number of cycles each access was blocked
system.cpu1.icache.avg_blocked_cycles::no_targets          nan                       # average number of cycles each access was blocked
system.cpu1.itb_walker_cache.tags.pwrStateResidencyTicks::UNDEFINED 184361008100000                       # Cumulative time (in ticks) in various power states
system.cpu1.itb_walker_cache.tags.replacements            0                       # number of replacements
system.cpu1.itb_walker_cache.tags.tagsinuse            0                       # Cycle average of tags in use
system.cpu1.itb_walker_cache.tags.total_refs            0                       # Total number of references to valid blocks.
system.cpu1.itb_walker_cache.tags.sampled_refs            0                       # Sample count of references to valid blocks.
system.cpu1.itb_walker_cache.tags.avg_refs          nan                       # Average number of references to valid blocks.
system.cpu1.itb_walker_cache.tags.warmup_cycle            0                       # Cycle when the warmup percentage was hit.
system.cpu1.itb_walker_cache.tags.tag_accesses            0                       # Number of tag accesses
system.cpu1.itb_walker_cache.tags.data_accesses            0                       # Number of data accesses
system.cpu1.itb_walker_cache.pwrStateResidencyTicks::UNDEFINED 184361008100000                       # Cumulative time (in ticks) in various power states
system.cpu1.itb_walker_cache.blocked_cycles::no_mshrs            0                       # number of cycles access was blocked
system.cpu1.itb_walker_cache.blocked_cycles::no_targets            0                       # number of cycles access was blocked
system.cpu1.itb_walker_cache.blocked::no_mshrs            0                       # number of cycles access was blocked
system.cpu1.itb_walker_cache.blocked::no_targets            0                       # number of cycles access was blocked
system.cpu1.itb_walker_cache.avg_blocked_cycles::no_mshrs          nan                       # average number of cycles each access was blocked
system.cpu1.itb_walker_cache.avg_blocked_cycles::no_targets          nan                       # average number of cycles each access was blocked
system.cpu2.dtb.walker.pwrStateResidencyTicks::UNDEFINED 184361008100000                       # Cumulative time (in ticks) in various power states
system.cpu2.dtb.rdAccesses                          0                       # TLB accesses on read requests
system.cpu2.dtb.wrAccesses                          0                       # TLB accesses on write requests
system.cpu2.dtb.rdMisses                            0                       # TLB misses on read requests
system.cpu2.dtb.wrMisses                            0                       # TLB misses on write requests
system.cpu2.apic_clk_domain.clock                8000                       # Clock period in ticks
system.cpu2.interrupts.pwrStateResidencyTicks::UNDEFINED 184361008100000                       # Cumulative time (in ticks) in various power states
system.cpu2.itb.walker.pwrStateResidencyTicks::UNDEFINED 184361008100000                       # Cumulative time (in ticks) in various power states
system.cpu2.itb.rdAccesses                          0                       # TLB accesses on read requests
system.cpu2.itb.wrAccesses                          0                       # TLB accesses on write requests
system.cpu2.itb.rdMisses                            0                       # TLB misses on read requests
system.cpu2.itb.wrMisses                            0                       # TLB misses on write requests
system.cpu2.pwrStateResidencyTicks::ON   184361008100000                       # Cumulative time (in ticks) in various power states
system.cpu2.numCycles                               0                       # number of cpu cycles simulated
system.cpu2.numWorkItemsStarted                     0                       # number of work items this cpu started
system.cpu2.numWorkItemsCompleted                   0                       # number of work items this cpu completed
system.cpu2.committedInsts                          0                       # Number of instructions committed
system.cpu2.committedOps                            0                       # Number of ops (including micro ops) committed
system.cpu2.num_int_alu_accesses                    0                       # Number of integer alu accesses
system.cpu2.num_fp_alu_accesses                     0                       # Number of float alu accesses
system.cpu2.num_vec_alu_accesses                    0                       # Number of vector alu accesses
system.cpu2.num_func_calls                          0                       # number of times a function call or return occured
system.cpu2.num_conditional_control_insts            0                       # number of instructions that are conditional controls
system.cpu2.num_int_insts                           0                       # number of integer instructions
system.cpu2.num_fp_insts                            0                       # number of float instructions
system.cpu2.num_vec_insts                           0                       # number of vector instructions
system.cpu2.num_int_register_reads                  0                       # number of times the integer registers were read
system.cpu2.num_int_register_writes                 0                       # number of times the integer registers were written
system.cpu2.num_fp_register_reads                   0                       # number of times the floating registers were read
system.cpu2.num_fp_register_writes                  0                       # number of times the floating registers were written
system.cpu2.num_vec_register_reads                  0                       # number of times the vector registers were read
system.cpu2.num_vec_register_writes                 0                       # number of times the vector registers were written
system.cpu2.num_mem_refs                            0                       # number of memory refs
system.cpu2.num_load_insts                          0                       # Number of load instructions
system.cpu2.num_store_insts                         0                       # Number of store instructions
system.cpu2.num_idle_cycles                         0                       # Number of idle cycles
system.cpu2.num_busy_cycles                         0                       # Number of busy cycles
system.cpu2.not_idle_fraction                       0                       # Percentage of non-idle cycles
system.cpu2.idle_fraction                           1                       # Percentage of idle cycles
system.cpu2.op_class::No_OpClass                    0                       # Class of executed instruction
system.cpu2.op_class::IntAlu                        0                       # Class of executed instruction
system.cpu2.op_class::IntMult                       0                       # Class of executed instruction
system.cpu2.op_class::IntDiv                        0                       # Class of executed instruction
system.cpu2.op_class::FloatAdd                      0                       # Class of executed instruction
system.cpu2.op_class::FloatCmp                      0                       # Class of executed instruction
system.cpu2.op_class::FloatCvt                      0                       # Class of executed instruction
system.cpu2.op_class::FloatMult                     0                       # Class of executed instruction
system.cpu2.op_class::FloatMultAcc                  0                       # Class of executed instruction
system.cpu2.op_class::FloatDiv                      0                       # Class of executed instruction
system.cpu2.op_class::FloatMisc                     0                       # Class of executed instruction
system.cpu2.op_class::FloatSqrt                     0                       # Class of executed instruction
system.cpu2.op_class::SimdAdd                       0                       # Class of executed instruction
system.cpu2.op_class::SimdAddAcc                    0                       # Class of executed instruction
system.cpu2.op_class::SimdAlu                       0                       # Class of executed instruction
system.cpu2.op_class::SimdCmp                       0                       # Class of executed instruction
system.cpu2.op_class::SimdCvt                       0                       # Class of executed instruction
system.cpu2.op_class::SimdMisc                      0                       # Class of executed instruction
system.cpu2.op_class::SimdMult                      0                       # Class of executed instruction
system.cpu2.op_class::SimdMultAcc                   0                       # Class of executed instruction
[...]
system.cpu3.itb_walker_cache.blocked::no_targets            0                       # number of cycles access was blocked
system.cpu3.itb_walker_cache.avg_blocked_cycles::no_mshrs          nan                       # average number of cycles each access was blocked
system.cpu3.itb_walker_cache.avg_blocked_cycles::no_targets          nan                       # average number of cycles each access was blocked
system.l2.tags.pwrStateResidencyTicks::UNDEFINED 184361008100000                       # Cumulative time (in ticks) in various power states
system.l2.tags.replacements                 647350752                       # number of replacements
system.l2.tags.tagsinuse                 32765.482006                       # Cycle average of tags in use
system.l2.tags.total_refs                   951606972                       # Total number of references to valid blocks.
system.l2.tags.sampled_refs                 647383520                       # Sample count of references to valid blocks.
system.l2.tags.avg_refs                      1.469928                       # Average number of references to valid blocks.
system.l2.tags.warmup_cycle               29651316500                       # Cycle when the warmup percentage was hit.
system.l2.tags.occ_blocks::writebacks       29.801860                       # Average occupied blocks per requestor
system.l2.tags.occ_blocks::cpu0.inst         6.625644                       # Average occupied blocks per requestor
system.l2.tags.occ_blocks::cpu0.data     32729.054508                       # Average occupied blocks per requestor
system.l2.tags.occ_percent::writebacks       0.000909                       # Average percentage of cache occupancy
system.l2.tags.occ_percent::cpu0.inst        0.000202                       # Average percentage of cache occupancy
system.l2.tags.occ_percent::cpu0.data        0.998811                       # Average percentage of cache occupancy
system.l2.tags.occ_percent::total            0.999923                       # Average percentage of cache occupancy
system.l2.tags.occ_task_id_blocks::1024         32768                       # Occupied blocks per task id
system.l2.tags.age_task_id_blocks_1024::0          165                       # Occupied blocks per task id
system.l2.tags.age_task_id_blocks_1024::1          522                       # Occupied blocks per task id
system.l2.tags.age_task_id_blocks_1024::2         8084                       # Occupied blocks per task id
system.l2.tags.age_task_id_blocks_1024::3        23866                       # Occupied blocks per task id
system.l2.tags.age_task_id_blocks_1024::4          131                       # Occupied blocks per task id
system.l2.tags.occ_task_id_percent::1024            1                       # Percentage of cache occupancy per task id
system.l2.tags.tag_accesses               13439547048                       # Number of tag accesses
system.l2.tags.data_accesses              13439547048                       # Number of data accesses
system.l2.pwrStateResidencyTicks::UNDEFINED 184361008100000                       # Cumulative time (in ticks) in various power states
system.l2.WritebackDirty_hits::writebacks    365812218                       # number of WritebackDirty hits
system.l2.WritebackDirty_hits::total        365812218                       # number of WritebackDirty hits
system.l2.WritebackClean_hits::writebacks     16248869                       # number of WritebackClean hits
system.l2.WritebackClean_hits::total         16248869                       # number of WritebackClean hits
system.l2.ReadExReq_hits::cpu0.data          16116902                       # number of ReadExReq hits
system.l2.ReadExReq_hits::total              16116902                       # number of ReadExReq hits
system.l2.ReadCleanReq_hits::cpu0.inst       16244328                       # number of ReadCleanReq hits
system.l2.ReadCleanReq_hits::total           16244328                       # number of ReadCleanReq hits
system.l2.ReadSharedReq_hits::cpu0.data     119840267                       # number of ReadSharedReq hits
system.l2.ReadSharedReq_hits::total         119840267                       # number of ReadSharedReq hits
system.l2.demand_hits::cpu0.inst             16244328                       # number of demand (read+write) hits
system.l2.demand_hits::cpu0.data            135957169                       # number of demand (read+write) hits
system.l2.demand_hits::total                152201497                       # number of demand (read+write) hits
system.l2.overall_hits::cpu0.inst            16244328                       # number of overall hits
system.l2.overall_hits::cpu0.data           135957169                       # number of overall hits
system.l2.overall_hits::total               152201497                       # number of overall hits
system.l2.ReadExReq_misses::cpu0.data       116680779                       # number of ReadExReq misses
system.l2.ReadExReq_misses::total           116680779                       # number of ReadExReq misses
system.l2.ReadCleanReq_misses::cpu0.inst         5053                       # number of ReadCleanReq misses
system.l2.ReadCleanReq_misses::total             5053                       # number of ReadCleanReq misses
system.l2.ReadSharedReq_misses::cpu0.data    530623660                       # number of ReadSharedReq misses
system.l2.ReadSharedReq_misses::total       530623660                       # number of ReadSharedReq misses
system.l2.demand_misses::cpu0.inst               5053                       # number of demand (read+write) misses
system.l2.demand_misses::cpu0.data          647304439                       # number of demand (read+write) misses
system.l2.demand_misses::total              647309492                       # number of demand (read+write) misses
system.l2.overall_misses::cpu0.inst              5053                       # number of overall misses
system.l2.overall_misses::cpu0.data         647304439                       # number of overall misses
system.l2.overall_misses::total             647309492                       # number of overall misses
system.l2.WritebackDirty_accesses::writebacks    365812218                       # number of WritebackDirty accesses(hits+misses)
system.l2.WritebackDirty_accesses::total    365812218                       # number of WritebackDirty accesses(hits+misses)
system.l2.WritebackClean_accesses::writebacks     16248869                       # number of WritebackClean accesses(hits+misses)
system.l2.WritebackClean_accesses::total     16248869                       # number of WritebackClean accesses(hits+misses)
system.l2.ReadExReq_accesses::cpu0.data     132797681                       # number of ReadExReq accesses(hits+misses)
system.l2.ReadExReq_accesses::total         132797681                       # number of ReadExReq accesses(hits+misses)
system.l2.ReadCleanReq_accesses::cpu0.inst     16249381                       # number of ReadCleanReq accesses(hits+misses)
system.l2.ReadCleanReq_accesses::total       16249381                       # number of ReadCleanReq accesses(hits+misses)
system.l2.ReadSharedReq_accesses::cpu0.data    650463927                       # number of ReadSharedReq accesses(hits+misses)
system.l2.ReadSharedReq_accesses::total     650463927                       # number of ReadSharedReq accesses(hits+misses)
system.l2.demand_accesses::cpu0.inst         16249381                       # number of demand (read+write) accesses
system.l2.demand_accesses::cpu0.data        783261608                       # number of demand (read+write) accesses
system.l2.demand_accesses::total            799510989                       # number of demand (read+write) accesses
system.l2.overall_accesses::cpu0.inst        16249381                       # number of overall (read+write) accesses
system.l2.overall_accesses::cpu0.data       783261608                       # number of overall (read+write) accesses
system.l2.overall_accesses::total           799510989                       # number of overall (read+write) accesses
system.l2.ReadExReq_miss_rate::cpu0.data     0.878636                       # miss rate for ReadExReq accesses
system.l2.ReadExReq_miss_rate::total         0.878636                       # miss rate for ReadExReq accesses
system.l2.ReadCleanReq_miss_rate::cpu0.inst     0.000311                       # miss rate for ReadCleanReq accesses
system.l2.ReadCleanReq_miss_rate::total      0.000311                       # miss rate for ReadCleanReq accesses
system.l2.ReadSharedReq_miss_rate::cpu0.data     0.815762                       # miss rate for ReadSharedReq accesses
system.l2.ReadSharedReq_miss_rate::total     0.815762                       # miss rate for ReadSharedReq accesses
system.l2.demand_miss_rate::cpu0.inst        0.000311                       # miss rate for demand accesses
system.l2.demand_miss_rate::cpu0.data        0.826422                       # miss rate for demand accesses
system.l2.demand_miss_rate::total            0.809632                       # miss rate for demand accesses
system.l2.overall_miss_rate::cpu0.inst       0.000311                       # miss rate for overall accesses
system.l2.overall_miss_rate::cpu0.data       0.826422                       # miss rate for overall accesses
system.l2.overall_miss_rate::total           0.809632                       # miss rate for overall accesses
system.l2.blocked_cycles::no_mshrs                  0                       # number of cycles access was blocked
system.l2.blocked_cycles::no_targets                0                       # number of cycles access was blocked
system.l2.blocked::no_mshrs                         0                       # number of cycles access was blocked
system.l2.blocked::no_targets                       0                       # number of cycles access was blocked
system.l2.avg_blocked_cycles::no_mshrs            nan                       # average number of cycles each access was blocked
system.l2.avg_blocked_cycles::no_targets          nan                       # average number of cycles each access was blocked
system.l2.writebacks::writebacks            308845091                       # number of writebacks
system.l2.writebacks::total                 308845091                       # number of writebacks
system.membus.snoop_filter.tot_requests    1294585983                       # Total number of requests made to the snoop filter.
system.membus.snoop_filter.hit_single_requests    647276491                       # Number of requests hitting in the snoop filter with a single holder of the requested data.
system.membus.snoop_filter.hit_multi_requests            0                       # Number of requests hitting in the snoop filter with multiple (>1) holders of the requested data.
system.membus.snoop_filter.tot_snoops               0                       # Total number of snoops made to the snoop filter.
system.membus.snoop_filter.hit_single_snoops            0                       # Number of snoops hitting in the snoop filter with a single holder of the requested data.
system.membus.snoop_filter.hit_multi_snoops            0                       # Number of snoops hitting in the snoop filter with multiple (>1) holders of the requested data.
system.membus.pwrStateResidencyTicks::UNDEFINED 184361008100000                       # Cumulative time (in ticks) in various power states
system.membus.trans_dist::ReadResp          530628713                       # Transaction distribution
system.membus.trans_dist::WritebackDirty    308845091                       # Transaction distribution
system.membus.trans_dist::CleanEvict        338431400                       # Transaction distribution
system.membus.trans_dist::ReadExReq         116680779                       # Transaction distribution
system.membus.trans_dist::ReadExResp        116680779                       # Transaction distribution
system.membus.trans_dist::ReadSharedReq     530628713                       # Transaction distribution
system.membus.pkt_count_system.l2.mem_side::system.mem_ctrls.port   1941895475                       # Packet count per connected master and slave (bytes)
system.membus.pkt_count_system.l2.mem_side::total   1941895475                       # Packet count per connected master and slave (bytes)
system.membus.pkt_count::total             1941895475                       # Packet count per connected master and slave (bytes)
system.membus.pkt_size_system.l2.mem_side::system.mem_ctrls.port  61193893312                       # Cumulative packet size per connected master and slave (bytes)
system.membus.pkt_size_system.l2.mem_side::total  61193893312                       # Cumulative packet size per connected master and slave (bytes)
system.membus.pkt_size::total             61193893312                       # Cumulative packet size per connected master and slave (bytes)
system.membus.snoops                                0                       # Total snoops (count)
system.membus.snoopTraffic                          0                       # Total snoop traffic (bytes)
system.membus.snoop_fanout::samples        1294585983                       # Request fanout histogram
system.membus.snoop_fanout::mean                    0                       # Request fanout histogram
system.membus.snoop_fanout::stdev                   0                       # Request fanout histogram
system.membus.snoop_fanout::underflows              0      0.00%      0.00% # Request fanout histogram
system.membus.snoop_fanout::0              1294585983    100.00%    100.00% # Request fanout histogram
system.membus.snoop_fanout::1                       0      0.00%    100.00% # Request fanout histogram
system.membus.snoop_fanout::overflows               0      0.00%    100.00% # Request fanout histogram
system.membus.snoop_fanout::min_value               0                       # Request fanout histogram
system.membus.snoop_fanout::max_value               0                       # Request fanout histogram
system.membus.snoop_fanout::total          1294585983                       # Request fanout histogram
system.tol2bus.snoop_filter.tot_requests   1599020442                       # Total number of requests made to the snoop filter.
system.tol2bus.snoop_filter.hit_single_requests    799509453                       # Number of requests hitting in the snoop filter with a single holder of the requested data.
system.tol2bus.snoop_filter.hit_multi_requests            1                       # Number of requests hitting in the snoop filter with multiple (>1) holders of the requested data.
system.tol2bus.snoop_filter.tot_snoops         104210                       # Total number of snoops made to the snoop filter.
system.tol2bus.snoop_filter.hit_single_snoops       104210                       # Number of snoops hitting in the snoop filter with a single holder of the requested data.
system.tol2bus.snoop_filter.hit_multi_snoops            0                       # Number of snoops hitting in the snoop filter with multiple (>1) holders of the requested data.
system.tol2bus.pwrStateResidencyTicks::UNDEFINED 184361008100000                       # Cumulative time (in ticks) in various power states
system.tol2bus.trans_dist::ReadResp         666713308                       # Transaction distribution
system.tol2bus.trans_dist::WritebackDirty    365812218                       # Transaction distribution
system.tol2bus.trans_dist::WritebackClean     16248869                       # Transaction distribution
system.tol2bus.trans_dist::CleanEvict       417448366                       # Transaction distribution
system.tol2bus.trans_dist::ReadExReq        132797681                       # Transaction distribution
system.tol2bus.trans_dist::ReadExResp       132797681                       # Transaction distribution
system.tol2bus.trans_dist::ReadCleanReq      16249381                       # Transaction distribution
system.tol2bus.trans_dist::ReadSharedReq    650463927                       # Transaction distribution
system.tol2bus.pkt_count_system.cpu0.icache.mem_side::system.l2.cpu_side     48747631                       # Packet count per connected master and slave (bytes)
system.tol2bus.pkt_count_system.cpu0.dcache.mem_side::system.l2.cpu_side   2349783800                       # Packet count per connected master and slave (bytes)
system.tol2bus.pkt_count::total            2398531431                       # Packet count per connected master and slave (bytes)
system.tol2bus.pkt_size_system.cpu0.icache.mem_side::system.l2.cpu_side   2079888000                       # Cumulative packet size per connected master and slave (bytes)
system.tol2bus.pkt_size_system.cpu0.dcache.mem_side::system.l2.cpu_side  73540724864                       # Cumulative packet size per connected master and slave (bytes)
system.tol2bus.pkt_size::total            75620612864                       # Cumulative packet size per connected master and slave (bytes)
system.tol2bus.snoops                       647350752                       # Total snoops (count)
system.tol2bus.snoopTraffic               19766085824                       # Total snoop traffic (bytes)
system.tol2bus.snoop_fanout::samples       2246371194                       # Request fanout histogram
system.tol2bus.snoop_fanout::mean            0.000046                       # Request fanout histogram
system.tol2bus.snoop_fanout::stdev           0.006811                       # Request fanout histogram
system.tol2bus.snoop_fanout::underflows             0      0.00%      0.00% # Request fanout histogram
system.tol2bus.snoop_fanout::0             2246266982    100.00%    100.00% # Request fanout histogram
system.tol2bus.snoop_fanout::1                 104212      0.00%    100.00% # Request fanout histogram
system.tol2bus.snoop_fanout::2                      0      0.00%    100.00% # Request fanout histogram
system.tol2bus.snoop_fanout::3                      0      0.00%    100.00% # Request fanout histogram
system.tol2bus.snoop_fanout::4                      0      0.00%    100.00% # Request fanout histogram
system.tol2bus.snoop_fanout::5                      0      0.00%    100.00% # Request fanout histogram
system.tol2bus.snoop_fanout::6                      0      0.00%    100.00% # Request fanout histogram
system.tol2bus.snoop_fanout::7                      0      0.00%    100.00% # Request fanout histogram
system.tol2bus.snoop_fanout::8                      0      0.00%    100.00% # Request fanout histogram
system.tol2bus.snoop_fanout::9                      0      0.00%    100.00% # Request fanout histogram
system.tol2bus.snoop_fanout::10                     0      0.00%    100.00% # Request fanout histogram
system.tol2bus.snoop_fanout::11                     0      0.00%    100.00% # Request fanout histogram
system.tol2bus.snoop_fanout::12                     0      0.00%    100.00% # Request fanout histogram
system.tol2bus.snoop_fanout::13                     0      0.00%    100.00% # Request fanout histogram
system.tol2bus.snoop_fanout::14                     0      0.00%    100.00% # Request fanout histogram
system.tol2bus.snoop_fanout::15                     0      0.00%    100.00% # Request fanout histogram
system.tol2bus.snoop_fanout::16                     0      0.00%    100.00% # Request fanout histogram
system.tol2bus.snoop_fanout::overflows              0      0.00%    100.00% # Request fanout histogram
system.tol2bus.snoop_fanout::min_value              0                       # Request fanout histogram
system.tol2bus.snoop_fanout::max_value              1                       # Request fanout histogram
system.tol2bus.snoop_fanout::total         2246371194                       # Request fanout histogram

---------- End Simulation Statistics   ----------
