
---------- Begin Simulation Statistics ----------
sim_seconds                                 97.149100                       # Number of seconds simulated
sim_ticks                                97149100436500                       # Number of ticks simulated
final_tick                               97149100436500                       # Number of ticks from beginning of simulation (restored from checkpoints and never reset)
sim_freq                                 1000000000000                       # Frequency of simulated ticks
host_inst_rate                                1354293                       # Simulator instruction rate (inst/s)
host_op_rate                                  2683435                       # Simulator op (including micro ops) rate (op/s)
host_tick_rate                             1532867054                       # Simulator tick rate (ticks/s)
host_mem_usage                                4599228                       # Number of bytes of host memory used
host_seconds                                 63377.38                       # Real time elapsed on the host
sim_insts                                 85831528184                       # Number of instructions simulated
sim_ops                                  170069070518                       # Number of ops (including micro ops) simulated
system.voltage_domain.voltage                       1                       # Voltage in Volts
system.clk_domain.clock                          1000                       # Clock period in ticks
system.mem_ctrls.pwrStateResidencyTicks::UNDEFINED 97149100436500                       # Cumulative time (in ticks) in various power states
system.mem_ctrls.bytes_read::cpu0.inst         403392                       # Number of bytes read from this memory
system.mem_ctrls.bytes_read::cpu0.data    33321914368                       # Number of bytes read from this memory
system.mem_ctrls.bytes_read::total        33322317760                       # Number of bytes read from this memory
system.mem_ctrls.bytes_inst_read::cpu0.inst       403392                       # Number of instructions bytes read from this memory
system.mem_ctrls.bytes_inst_read::total        403392                       # Number of instructions bytes read from this memory
system.mem_ctrls.bytes_written::writebacks  14607425536                       # Number of bytes written to this memory
system.mem_ctrls.bytes_written::total     14607425536                       # Number of bytes written to this memory
system.mem_ctrls.num_reads::cpu0.inst            6303                       # Number of read requests responded to by this memory
system.mem_ctrls.num_reads::cpu0.data       520654912                       # Number of read requests responded to by this memory
system.mem_ctrls.num_reads::total           520661215                       # Number of read requests responded to by this memory
system.mem_ctrls.num_writes::writebacks     228241024                       # Number of write requests responded to by this memory
system.mem_ctrls.num_writes::total          228241024                       # Number of write requests responded to by this memory
system.mem_ctrls.bw_read::cpu0.inst              4152                       # Total read bandwidth from this memory (bytes/s)
system.mem_ctrls.bw_read::cpu0.data         342997663                       # Total read bandwidth from this memory (bytes/s)
system.mem_ctrls.bw_read::total             343001815                       # Total read bandwidth from this memory (bytes/s)
system.mem_ctrls.bw_inst_read::cpu0.inst         4152                       # Instruction read bandwidth from this memory (bytes/s)
system.mem_ctrls.bw_inst_read::total             4152                       # Instruction read bandwidth from this memory (bytes/s)
system.mem_ctrls.bw_write::writebacks       150360893                       # Write bandwidth from this memory (bytes/s)
system.mem_ctrls.bw_write::total            150360893                       # Write bandwidth from this memory (bytes/s)
system.mem_ctrls.bw_total::writebacks       150360893                       # Total bandwidth to/from this memory (bytes/s)
system.mem_ctrls.bw_total::cpu0.inst             4152                       # Total bandwidth to/from this memory (bytes/s)
system.mem_ctrls.bw_total::cpu0.data        342997663                       # Total bandwidth to/from this memory (bytes/s)
system.mem_ctrls.bw_total::total            493362708                       # Total bandwidth to/from this memory (bytes/s)
system.mem_ctrls.readReqs                           0                       # Number of read requests accepted
system.mem_ctrls.writeReqs                          0                       # Number of write requests accepted
system.mem_ctrls.readBursts                         0                       # Number of DRAM read bursts, including those serviced by the write queue
system.mem_ctrls.writeBursts                        0                       # Number of DRAM write bursts, including those merged in the write queue
system.mem_ctrls.bytesReadDRAM                      0                       # Total number of bytes read from DRAM
system.mem_ctrls.bytesReadWrQ                       0                       # Total number of bytes read from write queue
system.mem_ctrls.bytesWritten                       0                       # Total number of bytes written to DRAM
system.mem_ctrls.bytesReadSys                       0                       # Total read bytes from the system interface side
system.mem_ctrls.bytesWrittenSys                    0                       # Total written bytes from the system interface side
system.mem_ctrls.servicedByWrQ                      0                       # Number of DRAM read bursts serviced by the write queue
system.mem_ctrls.mergedWrBursts                     0                       # Number of DRAM write bursts merged with an existing one
system.mem_ctrls.neitherReadNorWriteReqs            0                       # Number of requests that are neither read nor write
system.mem_ctrls.perBankRdBursts::0                 0                       # Per bank write bursts
system.mem_ctrls.perBankRdBursts::1                 0                       # Per bank write bursts
system.mem_ctrls.perBankRdBursts::2                 0                       # Per bank write bursts
system.mem_ctrls.perBankRdBursts::3                 0                       # Per bank write bursts
system.mem_ctrls.perBankRdBursts::4                 0                       # Per bank write bursts
system.mem_ctrls.perBankRdBursts::5                 0                       # Per bank write bursts
system.mem_ctrls.perBankRdBursts::6                 0                       # Per bank write bursts
system.mem_ctrls.perBankRdBursts::7                 0                       # Per bank write bursts
system.mem_ctrls.perBankRdBursts::8                 0                       # Per bank write bursts
system.mem_ctrls.perBankRdBursts::9                 0                       # Per bank write bursts
system.mem_ctrls.perBankRdBursts::10                0                       # Per bank write bursts
system.mem_ctrls.perBankRdBursts::11                0                       # Per bank write bursts
system.mem_ctrls.perBankRdBursts::12                0                       # Per bank write bursts
system.mem_ctrls.perBankRdBursts::13                0                       # Per bank write bursts
system.mem_ctrls.perBankRdBursts::14                0                       # Per bank write bursts
system.mem_ctrls.perBankRdBursts::15                0                       # Per bank write bursts
system.mem_ctrls.perBankWrBursts::0                 0                       # Per bank write bursts
system.mem_ctrls.perBankWrBursts::1                 0                       # Per bank write bursts
system.mem_ctrls.perBankWrBursts::2                 0                       # Per bank write bursts
system.mem_ctrls.perBankWrBursts::3                 0                       # Per bank write bursts
system.mem_ctrls.perBankWrBursts::4                 0                       # Per bank write bursts
system.mem_ctrls.perBankWrBursts::5                 0                       # Per bank write bursts
system.mem_ctrls.perBankWrBursts::6                 0                       # Per bank write bursts
system.mem_ctrls.perBankWrBursts::7                 0                       # Per bank write bursts
system.mem_ctrls.perBankWrBursts::8                 0                       # Per bank write bursts
system.mem_ctrls.perBankWrBursts::9                 0                       # Per bank write bursts
system.mem_ctrls.perBankWrBursts::10                0                       # Per bank write bursts
system.mem_ctrls.perBankWrBursts::11                0                       # Per bank write bursts
system.mem_ctrls.perBankWrBursts::12                0                       # Per bank write bursts
system.mem_ctrls.perBankWrBursts::13                0                       # Per bank write bursts
system.mem_ctrls.perBankWrBursts::14                0                       # Per bank write bursts
system.mem_ctrls.perBankWrBursts::15                0                       # Per bank write bursts
system.mem_ctrls.numRdRetry                         0                       # Number of times read queue was full causing retry
system.mem_ctrls.numWrRetry                         0                       # Number of times write queue was full causing retry
system.mem_ctrls.totGap                             0                       # Total gap between requests
system.mem_ctrls.readPktSize::0                     0                       # Read request sizes (log2)
system.mem_ctrls.readPktSize::1                     0                       # Read request sizes (log2)
system.mem_ctrls.readPktSize::2                     0                       # Read request sizes (log2)
system.mem_ctrls.readPktSize::3                     0                       # Read request sizes (log2)
system.mem_ctrls.readPktSize::4                     0                       # Read request sizes (log2)
system.mem_ctrls.readPktSize::5                     0                       # Read request sizes (log2)
system.mem_ctrls.readPktSize::6                     0                       # Read request sizes (log2)
system.mem_ctrls.writePktSize::0                    0                       # Write request sizes (log2)
system.mem_ctrls.writePktSize::1                    0                       # Write request sizes (log2)
system.mem_ctrls.writePktSize::2                    0                       # Write request sizes (log2)
system.mem_ctrls.writePktSize::3                    0                       # Write request sizes (log2)
system.mem_ctrls.writePktSize::4                    0                       # Write request sizes (log2)
system.mem_ctrls.writePktSize::5                    0                       # Write request sizes (log2)
system.mem_ctrls.writePktSize::6                    0                       # Write request sizes (log2)
system.mem_ctrls.rdQLenPdf::0                       0                       # What read queue length does an incoming req see
system.mem_ctrls.rdQLenPdf::1                       0                       # What read queue length does an incoming req see
system.mem_ctrls.rdQLenPdf::2                       0                       # What read queue length does an incoming req see
system.mem_ctrls.rdQLenPdf::3                       0                       # What read queue length does an incoming req see
system.mem_ctrls.rdQLenPdf::4                       0                       # What read queue length does an incoming req see
system.mem_ctrls.rdQLenPdf::5                       0                       # What read queue length does an incoming req see
system.mem_ctrls.rdQLenPdf::6                       0                       # What read queue length does an incoming req see
system.mem_ctrls.rdQLenPdf::7                       0                       # What read queue length does an incoming req see
system.mem_ctrls.rdQLenPdf::8                       0                       # What read queue length does an incoming req see
system.mem_ctrls.rdQLenPdf::9                       0                       # What read queue length does an incoming req see
system.mem_ctrls.rdQLenPdf::10                      0                       # What read queue length does an incoming req see
system.mem_ctrls.rdQLenPdf::11                      0                       # What read queue length does an incoming req see
system.mem_ctrls.rdQLenPdf::12                      0                       # What read queue length does an incoming req see
system.mem_ctrls.rdQLenPdf::13                      0                       # What read queue length does an incoming req see
system.mem_ctrls.rdQLenPdf::14                      0                       # What read queue length does an incoming req see
system.mem_ctrls.rdQLenPdf::15                      0                       # What read queue length does an incoming req see
system.mem_ctrls.rdQLenPdf::16                      0                       # What read queue length does an incoming req see
system.mem_ctrls.rdQLenPdf::17                      0                       # What read queue length does an incoming req see
system.mem_ctrls.rdQLenPdf::18                      0                       # What read queue length does an incoming req see
system.mem_ctrls.rdQLenPdf::19                      0                       # What read queue length does an incoming req see
system.mem_ctrls.rdQLenPdf::20                      0                       # What read queue length does an incoming req see
system.mem_ctrls.rdQLenPdf::21                      0                       # What read queue length does an incoming req see
system.mem_ctrls.rdQLenPdf::22                      0                       # What read queue length does an incoming req see
system.mem_ctrls.rdQLenPdf::23                      0                       # What read queue length does an incoming req see
system.mem_ctrls.rdQLenPdf::24                      0                       # What read queue length does an incoming req see
system.mem_ctrls.rdQLenPdf::25                      0                       # What read queue length does an incoming req see
system.mem_ctrls.rdQLenPdf::26                      0                       # What read queue length does an incoming req see
system.mem_ctrls.rdQLenPdf::27                      0                       # What read queue length does an incoming req see
system.mem_ctrls.rdQLenPdf::28                      0                       # What read queue length does an incoming req see
system.mem_ctrls.rdQLenPdf::29                      0                       # What read queue length does an incoming req see
system.mem_ctrls.rdQLenPdf::30                      0                       # What read queue length does an incoming req see
system.mem_ctrls.rdQLenPdf::31                      0                       # What read queue length does an incoming req see
system.mem_ctrls.wrQLenPdf::0                       0                       # What write queue length does an incoming req see
system.mem_ctrls.wrQLenPdf::1                       0                       # What write queue length does an incoming req see
system.mem_ctrls.wrQLenPdf::2                       0                       # What write queue length does an incoming req see
system.mem_ctrls.wrQLenPdf::3                       0                       # What write queue length does an incoming req see
system.mem_ctrls.wrQLenPdf::4                       0                       # What write queue length does an incoming req see
system.mem_ctrls.wrQLenPdf::5                       0                       # What write queue length does an incoming req see
system.mem_ctrls.wrQLenPdf::6                       0                       # What write queue length does an incoming req see
system.mem_ctrls.wrQLenPdf::7                       0                       # What write queue length does an incoming req see
system.mem_ctrls.wrQLenPdf::8                       0                       # What write queue length does an incoming req see
system.mem_ctrls.wrQLenPdf::9                       0                       # What write queue length does an incoming req see
system.mem_ctrls.wrQLenPdf::10                      0                       # What write queue length does an incoming req see
system.mem_ctrls.wrQLenPdf::11                      0                       # What write queue length does an incoming req see
system.mem_ctrls.wrQLenPdf::12                      0                       # What write queue length does an incoming req see
system.mem_ctrls.wrQLenPdf::13                      0                       # What write queue length does an incoming req see
system.mem_ctrls.wrQLenPdf::14                      0                       # What write queue length does an incoming req see
system.mem_ctrls.wrQLenPdf::15                      0                       # What write queue length does an incoming req see
system.mem_ctrls.wrQLenPdf::16                      0                       # What write queue length does an incoming req see
system.mem_ctrls.wrQLenPdf::17                      0                       # What write queue length does an incoming req see
system.mem_ctrls.wrQLenPdf::18                      0                       # What write queue length does an incoming req see
system.mem_ctrls.wrQLenPdf::19                      0                       # What write queue length does an incoming req see
system.mem_ctrls.wrQLenPdf::20                      0                       # What write queue length does an incoming req see
system.mem_ctrls.wrQLenPdf::21                      0                       # What write queue length does an incoming req see
system.mem_ctrls.wrQLenPdf::22                      0                       # What write queue length does an incoming req see
system.mem_ctrls.wrQLenPdf::23                      0                       # What write queue length does an incoming req see
system.mem_ctrls.wrQLenPdf::24                      0                       # What write queue length does an incoming req see
system.mem_ctrls.wrQLenPdf::25                      0                       # What write queue length does an incoming req see
system.mem_ctrls.wrQLenPdf::26                      0                       # What write queue length does an incoming req see
system.mem_ctrls.wrQLenPdf::27                      0                       # What write queue length does an incoming req see
system.mem_ctrls.wrQLenPdf::28                      0                       # What write queue length does an incoming req see
system.mem_ctrls.wrQLenPdf::29                      0                       # What write queue length does an incoming req see
system.mem_ctrls.wrQLenPdf::30                      0                       # What write queue length does an incoming req see
system.mem_ctrls.wrQLenPdf::31                      0                       # What write queue length does an incoming req see
system.mem_ctrls.wrQLenPdf::32                      0                       # What write queue length does an incoming req see
system.mem_ctrls.wrQLenPdf::33                      0                       # What write queue length does an incoming req see
system.mem_ctrls.wrQLenPdf::34                      0                       # What write queue length does an incoming req see
system.mem_ctrls.wrQLenPdf::35                      0                       # What write queue length does an incoming req see
system.mem_ctrls.wrQLenPdf::36                      0                       # What write queue length does an incoming req see
system.mem_ctrls.wrQLenPdf::37                      0                       # What write queue length does an incoming req see
system.mem_ctrls.wrQLenPdf::38                      0                       # What write queue length does an incoming req see
system.mem_ctrls.wrQLenPdf::39                      0                       # What write queue length does an incoming req see
system.mem_ctrls.wrQLenPdf::40                      0                       # What write queue length does an incoming req see
system.mem_ctrls.wrQLenPdf::41                      0                       # What write queue length does an incoming req see
system.mem_ctrls.wrQLenPdf::42                      0                       # What write queue length does an incoming req see
system.mem_ctrls.wrQLenPdf::43                      0                       # What write queue length does an incoming req see
system.mem_ctrls.wrQLenPdf::44                      0                       # What write queue length does an incoming req see
system.mem_ctrls.wrQLenPdf::45                      0                       # What write queue length does an incoming req see
system.mem_ctrls.wrQLenPdf::46                      0                       # What write queue length does an incoming req see
system.mem_ctrls.wrQLenPdf::47                      0                       # What write queue length does an incoming req see
system.mem_ctrls.wrQLenPdf::48                      0                       # What write queue length does an incoming req see
system.mem_ctrls.wrQLenPdf::49                      0                       # What write queue length does an incoming req see
system.mem_ctrls.wrQLenPdf::50                      0                       # What write queue length does an incoming req see
system.mem_ctrls.wrQLenPdf::51                      0                       # What write queue length does an incoming req see
system.mem_ctrls.wrQLenPdf::52                      0                       # What write queue length does an incoming req see
system.mem_ctrls.wrQLenPdf::53                      0                       # What write queue length does an incoming req see
system.mem_ctrls.wrQLenPdf::54                      0                       # What write queue length does an incoming req see
system.mem_ctrls.wrQLenPdf::55                      0                       # What write queue length does an incoming req see
system.mem_ctrls.wrQLenPdf::56                      0                       # What write queue length does an incoming req see
system.mem_ctrls.wrQLenPdf::57                      0                       # What write queue length does an incoming req see
system.mem_ctrls.wrQLenPdf::58                      0                       # What write queue length does an incoming req see
system.mem_ctrls.wrQLenPdf::59                      0                       # What write queue length does an incoming req see
system.mem_ctrls.wrQLenPdf::60                      0                       # What write queue length does an incoming req see
system.mem_ctrls.wrQLenPdf::61                      0                       # What write queue length does an incoming req see
system.mem_ctrls.wrQLenPdf::62                      0                       # What write queue length does an incoming req see
system.mem_ctrls.wrQLenPdf::63                      0                       # What write queue length does an incoming req see
system.mem_ctrls.totQLat                            0                       # Total ticks spent queuing
system.mem_ctrls.totMemAccLat                       0                       # Total ticks spent from burst creation until serviced by the DRAM
system.mem_ctrls.totBusLat                          0                       # Total ticks spent in databus transfers
system.mem_ctrls.avgQLat                          nan                       # Average queueing delay per DRAM burst
system.mem_ctrls.avgBusLat                        nan                       # Average bus latency per DRAM burst
system.mem_ctrls.avgMemAccLat                     nan                       # Average memory access latency per DRAM burst
system.mem_ctrls.avgRdBW                         0.00                       # Average DRAM read bandwidth in MiByte/s
system.mem_ctrls.avgWrBW                         0.00                       # Average achieved write bandwidth in MiByte/s
system.mem_ctrls.avgRdBWSys                      0.00                       # Average system read bandwidth in MiByte/s
system.mem_ctrls.avgWrBWSys                      0.00                       # Average system write bandwidth in MiByte/s
system.mem_ctrls.peakBW                      12800.00                       # Theoretical peak bandwidth in MiByte/s
system.mem_ctrls.busUtil                         0.00                       # Data bus utilization in percentage
system.mem_ctrls.busUtilRead                     0.00                       # Data bus utilization in percentage for reads
system.mem_ctrls.busUtilWrite                    0.00                       # Data bus utilization in percentage for writes
system.mem_ctrls.avgRdQLen                       0.00                       # Average read queue length when enqueuing
system.mem_ctrls.avgWrQLen                       0.00                       # Average write queue length when enqueuing
system.mem_ctrls.readRowHits                        0                       # Number of row buffer hits during reads
system.mem_ctrls.writeRowHits                       0                       # Number of row buffer hits during writes
system.mem_ctrls.readRowHitRate                   nan                       # Row buffer hit rate for reads
system.mem_ctrls.writeRowHitRate                  nan                       # Row buffer hit rate for writes
system.mem_ctrls.avgGap                           nan                       # Average gap between requests
system.mem_ctrls.pageHitRate                      nan                       # Row buffer hit rate, read and write combined
system.mem_ctrls_0.actEnergy                        0                       # Energy for activate commands per rank (pJ)
system.mem_ctrls_0.preEnergy                        0                       # Energy for precharge commands per rank (pJ)
system.mem_ctrls_0.readEnergy                       0                       # Energy for read commands per rank (pJ)
system.mem_ctrls_0.writeEnergy                      0                       # Energy for write commands per rank (pJ)
system.mem_ctrls_0.refreshEnergy                    0                       # Energy for refresh commands per rank (pJ)
system.mem_ctrls_0.actBackEnergy                    0                       # Energy for active background per rank (pJ)
system.mem_ctrls_0.preBackEnergy         37305254568000                       # Energy for precharge background per rank (pJ)
system.mem_ctrls_0.actPowerDownEnergy               0                       # Energy for active power-down per rank (pJ)
system.mem_ctrls_0.prePowerDownEnergy               0                       # Energy for precharge power-down per rank (pJ)
system.mem_ctrls_0.selfRefreshEnergy                0                       # Energy for self refresh per rank (pJ)
system.mem_ctrls_0.totalEnergy           37305254568000                       # Total energy per rank (pJ)
system.mem_ctrls_0.averagePower                   384                       # Core power per rank (mW)
system.mem_ctrls_0.totalIdleTime                    0                       # Total Idle time Per DRAM Rank
system.mem_ctrls_0.memoryStateTime::IDLE 97149100436500                       # Time in different power states
system.mem_ctrls_0.memoryStateTime::REF             0                       # Time in different power states
system.mem_ctrls_0.memoryStateTime::SREF            0                       # Time in different power states
system.mem_ctrls_0.memoryStateTime::PRE_PDN            0                       # Time in different power states
system.mem_ctrls_0.memoryStateTime::ACT             0                       # Time in different power states
system.mem_ctrls_0.memoryStateTime::ACT_PDN            0                       # Time in different power states
system.mem_ctrls_1.actEnergy                        0                       # Energy for activate commands per rank (pJ)
system.mem_ctrls_1.preEnergy                        0                       # Energy for precharge commands per rank (pJ)
system.mem_ctrls_1.readEnergy                       0                       # Energy for read commands per rank (pJ)
system.mem_ctrls_1.writeEnergy                      0                       # Energy for write commands per rank (pJ)
system.mem_ctrls_1.refreshEnergy                    0                       # Energy for refresh commands per rank (pJ)
system.mem_ctrls_1.actBackEnergy                    0                       # Energy for active background per rank (pJ)
system.mem_ctrls_1.preBackEnergy         37305254568000                       # Energy for precharge background per rank (pJ)
system.mem_ctrls_1.actPowerDownEnergy               0                       # Energy for active power-down per rank (pJ)
system.mem_ctrls_1.prePowerDownEnergy               0                       # Energy for precharge power-down per rank (pJ)
system.mem_ctrls_1.selfRefreshEnergy                0                       # Energy for self refresh per rank (pJ)
system.mem_ctrls_1.totalEnergy           37305254568000                       # Total energy per rank (pJ)
system.mem_ctrls_1.averagePower                   384                       # Core power per rank (mW)
system.mem_ctrls_1.totalIdleTime                    0                       # Total Idle time Per DRAM Rank
system.mem_ctrls_1.memoryStateTime::IDLE 97149100436500                       # Time in different power states
system.mem_ctrls_1.memoryStateTime::REF             0                       # Time in different power states
system.mem_ctrls_1.memoryStateTime::SREF            0                       # Time in different power states
system.mem_ctrls_1.memoryStateTime::PRE_PDN            0                       # Time in different power states
system.mem_ctrls_1.memoryStateTime::ACT             0                       # Time in different power states
system.mem_ctrls_1.memoryStateTime::ACT_PDN            0                       # Time in different power states
system.pwrStateResidencyTicks::UNDEFINED 97149100436500                       # Cumulative time (in ticks) in various power states
system.cpu_voltage_domain.voltage                   1                       # Voltage in Volts
system.cpu_clk_domain.clock                       500                       # Clock period in ticks
system.cpu0.dtb.walker.pwrStateResidencyTicks::UNDEFINED 97149100436500                       # Cumulative time (in ticks) in various power states
system.cpu0.dtb.rdAccesses                19621363516                       # TLB accesses on read requests
system.cpu0.dtb.wrAccesses                10884200670                       # TLB accesses on write requests
system.cpu0.dtb.rdMisses                    408140275                       # TLB misses on read requests
system.cpu0.dtb.wrMisses                     33679554                       # TLB misses on write requests
system.cpu0.apic_clk_domain.clock                8000                       # Clock period in ticks
system.cpu0.interrupts.pwrStateResidencyTicks::UNDEFINED 97149100436500                       # Cumulative time (in ticks) in various power states
system.cpu0.itb.walker.pwrStateResidencyTicks::UNDEFINED 97149100436500                       # Cumulative time (in ticks) in various power states
system.cpu0.itb.rdAccesses                          0                       # TLB accesses on read requests
system.cpu0.itb.wrAccesses               110060791054                       # TLB accesses on write requests
system.cpu0.itb.rdMisses                            0                       # TLB misses on read requests
system.cpu0.itb.wrMisses                          234                       # TLB misses on write requests
system.cpu0.workload.numSyscalls                36463                       # Number of system calls
system.cpu0.pwrStateResidencyTicks::ON   97149100436500                       # Cumulative time (in ticks) in various power states
system.cpu0.numCycles                    194298333388                       # number of cpu cycles simulated
system.cpu0.numWorkItemsStarted                     0                       # number of work items this cpu started
system.cpu0.numWorkItemsCompleted                   0                       # number of work items this cpu completed
system.cpu0.committedInsts                85831528184                       # Number of instructions committed
system.cpu0.committedOps                 170069070518                       # Number of ops (including micro ops) committed
system.cpu0.num_int_alu_accesses         169169440592                       # Number of integer alu accesses
system.cpu0.num_fp_alu_accesses             512706248                       # Number of float alu accesses
system.cpu0.num_vec_alu_accesses                    0                       # Number of vector alu accesses
system.cpu0.num_func_calls                 2439966467                       # number of times a function call or return occured
system.cpu0.num_conditional_control_insts  13978812359                       # number of instructions that are conditional controls
system.cpu0.num_int_insts                169169440592                       # number of integer instructions
system.cpu0.num_fp_insts                    512706248                       # number of float instructions
system.cpu0.num_vec_insts                           0                       # number of vector instructions
system.cpu0.num_int_register_reads       346441135437                       # number of times the integer registers were read
system.cpu0.num_int_register_writes      147209853573                       # number of times the integer registers were written
system.cpu0.num_fp_register_reads           639229223                       # number of times the floating registers were read
system.cpu0.num_fp_register_writes          283838846                       # number of times the floating registers were written
system.cpu0.num_vec_register_reads                  0                       # number of times the vector registers were read
system.cpu0.num_vec_register_writes                 0                       # number of times the vector registers were written
system.cpu0.num_cc_register_reads        108516712082                       # number of times the CC registers were read
system.cpu0.num_cc_register_writes        54304762557                       # number of times the CC registers were written
system.cpu0.num_mem_refs                  30457089017                       # number of memory refs
system.cpu0.num_load_insts                19576785898                       # Number of load instructions
system.cpu0.num_store_insts               10880303119                       # Number of store instructions
system.cpu0.num_idle_cycles                         0                       # Number of idle cycles
system.cpu0.num_busy_cycles              194298333388                       # Number of busy cycles
system.cpu0.not_idle_fraction                       1                       # Percentage of non-idle cycles
system.cpu0.idle_fraction                           0                       # Percentage of idle cycles
system.cpu0.Branches                      17959079832                       # Number of branches fetched
system.cpu0.op_class::No_OpClass            621224428      0.37%      0.37% # Class of executed instruction
system.cpu0.op_class::IntAlu             135519469138     79.68%     80.05% # Class of executed instruction
system.cpu0.op_class::IntMult                13599708      0.01%     80.06% # Class of executed instruction
system.cpu0.op_class::IntDiv               3237238754      1.90%     81.96% # Class of executed instruction
system.cpu0.op_class::FloatAdd              220449473      0.13%     82.09% # Class of executed instruction
system.cpu0.op_class::FloatCmp                      0      0.00%     82.09% # Class of executed instruction
system.cpu0.op_class::FloatCvt                      0      0.00%     82.09% # Class of executed instruction
system.cpu0.op_class::FloatMult                     0      0.00%     82.09% # Class of executed instruction
system.cpu0.op_class::FloatMultAcc                  0      0.00%     82.09% # Class of executed instruction
system.cpu0.op_class::FloatDiv                      0      0.00%     82.09% # Class of executed instruction
system.cpu0.op_class::FloatMisc                     0      0.00%     82.09% # Class of executed instruction
system.cpu0.op_class::FloatSqrt                     0      0.00%     82.09% # Class of executed instruction
system.cpu0.op_class::SimdAdd                       0      0.00%     82.09% # Class of executed instruction
system.cpu0.op_class::SimdAddAcc                    0      0.00%     82.09% # Class of executed instruction
system.cpu0.op_class::SimdAlu                       0      0.00%     82.09% # Class of executed instruction
system.cpu0.op_class::SimdCmp                       0      0.00%     82.09% # Class of executed instruction
system.cpu0.op_class::SimdCvt                       0      0.00%     82.09% # Class of executed instruction
system.cpu0.op_class::SimdMisc                      0      0.00%     82.09% # Class of executed instruction
system.cpu0.op_class::SimdMult                      0      0.00%     82.09% # Class of executed instruction
system.cpu0.op_class::SimdMultAcc                   0      0.00%     82.09% # Class of executed instruction
system.cpu0.op_class::SimdShift                     0      0.00%     82.09% # Class of executed instruction
system.cpu0.op_class::SimdShiftAcc                  0      0.00%     82.09% # Class of executed instruction
system.cpu0.op_class::SimdSqrt                      0      0.00%     82.09% # Class of executed instruction
system.cpu0.op_class::SimdFloatAdd                  0      0.00%     82.09% # Class of executed instruction
system.cpu0.op_class::SimdFloatAlu                  0      0.00%     82.09% # Class of executed instruction
system.cpu0.op_class::SimdFloatCmp                  0      0.00%     82.09% # Class of executed instruction
system.cpu0.op_class::SimdFloatCvt                  0      0.00%     82.09% # Class of executed instruction
system.cpu0.op_class::SimdFloatDiv                  0      0.00%     82.09% # Class of executed instruction
system.cpu0.op_class::SimdFloatMisc                 0      0.00%     82.09% # Class of executed instruction
system.cpu0.op_class::SimdFloatMult                 0      0.00%     82.09% # Class of executed instruction
system.cpu0.op_class::SimdFloatMultAcc              0      0.00%     82.09% # Class of executed instruction
system.cpu0.op_class::SimdFloatSqrt                 0      0.00%     82.09% # Class of executed instruction
system.cpu0.op_class::MemRead             19523005305     11.48%     93.57% # Class of executed instruction
system.cpu0.op_class::MemWrite            10672923093      6.28%     99.85% # Class of executed instruction
system.cpu0.op_class::FloatMemRead           53780593      0.03%     99.88% # Class of executed instruction
system.cpu0.op_class::FloatMemWrite         207380026      0.12%    100.00% # Class of executed instruction
system.cpu0.op_class::IprAccess                     0      0.00%    100.00% # Class of executed instruction
system.cpu0.op_class::InstPrefetch                  0      0.00%    100.00% # Class of executed instruction
system.cpu0.op_class::total              170069070518                       # Class of executed instruction
system.cpu0.dcache.tags.pwrStateResidencyTicks::UNDEFINED 97149100436500                       # Cumulative time (in ticks) in various power states
system.cpu0.dcache.tags.replacements        619492605                       # number of replacements
system.cpu0.dcache.tags.tagsinuse          511.999685                       # Cycle average of tags in use
system.cpu0.dcache.tags.total_refs        29886071069                       # Total number of references to valid blocks.
system.cpu0.dcache.tags.sampled_refs        619493117                       # Sample count of references to valid blocks.
system.cpu0.dcache.tags.avg_refs            48.242781                       # Average number of references to valid blocks.
system.cpu0.dcache.tags.warmup_cycle        259260500                       # Cycle when the warmup percentage was hit.
system.cpu0.dcache.tags.occ_blocks::cpu0.data   511.999685                       # Average occupied blocks per requestor
system.cpu0.dcache.tags.occ_percent::cpu0.data     0.999999                       # Average percentage of cache occupancy
system.cpu0.dcache.tags.occ_percent::total     0.999999                       # Average percentage of cache occupancy
system.cpu0.dcache.tags.occ_task_id_blocks::1024          512                       # Occupied blocks per task id
system.cpu0.dcache.tags.age_task_id_blocks_1024::0          100                       # Occupied blocks per task id
system.cpu0.dcache.tags.age_task_id_blocks_1024::1          370                       # Occupied blocks per task id
system.cpu0.dcache.tags.age_task_id_blocks_1024::2           42                       # Occupied blocks per task id
system.cpu0.dcache.tags.occ_task_id_percent::1024            1                       # Percentage of cache occupancy per task id
system.cpu0.dcache.tags.tag_accesses      61630621489                       # Number of tag accesses
system.cpu0.dcache.tags.data_accesses     61630621489                       # Number of data accesses
system.cpu0.dcache.pwrStateResidencyTicks::UNDEFINED 97149100436500                       # Cumulative time (in ticks) in various power states
system.cpu0.dcache.ReadReq_hits::cpu0.data  19066916527                       # number of ReadReq hits
system.cpu0.dcache.ReadReq_hits::total    19066916527                       # number of ReadReq hits
system.cpu0.dcache.WriteReq_hits::cpu0.data  10819154542                       # number of WriteReq hits
system.cpu0.dcache.WriteReq_hits::total   10819154542                       # number of WriteReq hits
system.cpu0.dcache.demand_hits::cpu0.data  29886071069                       # number of demand (read+write) hits
system.cpu0.dcache.demand_hits::total     29886071069                       # number of demand (read+write) hits
system.cpu0.dcache.overall_hits::cpu0.data  29886071069                       # number of overall hits
system.cpu0.dcache.overall_hits::total    29886071069                       # number of overall hits
system.cpu0.dcache.ReadReq_misses::cpu0.data    554446989                       # number of ReadReq misses
system.cpu0.dcache.ReadReq_misses::total    554446989                       # number of ReadReq misses
system.cpu0.dcache.WriteReq_misses::cpu0.data     65046128                       # number of WriteReq misses
system.cpu0.dcache.WriteReq_misses::total     65046128                       # number of WriteReq misses
system.cpu0.dcache.demand_misses::cpu0.data    619493117                       # number of demand (read+write) misses
system.cpu0.dcache.demand_misses::total     619493117                       # number of demand (read+write) misses
system.cpu0.dcache.overall_misses::cpu0.data    619493117                       # number of overall misses
system.cpu0.dcache.overall_misses::total    619493117                       # number of overall misses
system.cpu0.dcache.ReadReq_accesses::cpu0.data  19621363516                       # number of ReadReq accesses(hits+misses)
system.cpu0.dcache.ReadReq_accesses::total  19621363516                       # number of ReadReq accesses(hits+misses)
system.cpu0.dcache.WriteReq_accesses::cpu0.data  10884200670                       # number of WriteReq accesses(hits+misses)
system.cpu0.dcache.WriteReq_accesses::total  10884200670                       # number of WriteReq accesses(hits+misses)
system.cpu0.dcache.demand_accesses::cpu0.data  30505564186                       # number of demand (read+write) accesses
system.cpu0.dcache.demand_accesses::total  30505564186                       # number of demand (read+write) accesses
system.cpu0.dcache.overall_accesses::cpu0.data  30505564186                       # number of overall (read+write) accesses
system.cpu0.dcache.overall_accesses::total  30505564186                       # number of overall (read+write) accesses
system.cpu0.dcache.ReadReq_miss_rate::cpu0.data     0.028257                       # miss rate for ReadReq accesses
system.cpu0.dcache.ReadReq_miss_rate::total     0.028257                       # miss rate for ReadReq accesses
system.cpu0.dcache.WriteReq_miss_rate::cpu0.data     0.005976                       # miss rate for WriteReq accesses
system.cpu0.dcache.WriteReq_miss_rate::total     0.005976                       # miss rate for WriteReq accesses
system.cpu0.dcache.demand_miss_rate::cpu0.data     0.020308                       # miss rate for demand accesses
system.cpu0.dcache.demand_miss_rate::total     0.020308                       # miss rate for demand accesses
system.cpu0.dcache.overall_miss_rate::cpu0.data     0.020308                       # miss rate for overall accesses
system.cpu0.dcache.overall_miss_rate::total     0.020308                       # miss rate for overall accesses
system.cpu0.dcache.blocked_cycles::no_mshrs            0                       # number of cycles access was blocked
system.cpu0.dcache.blocked_cycles::no_targets            0                       # number of cycles access was blocked
system.cpu0.dcache.blocked::no_mshrs                0                       # number of cycles access was blocked
system.cpu0.dcache.blocked::no_targets              0                       # number of cycles access was blocked
system.cpu0.dcache.avg_blocked_cycles::no_mshrs          nan                       # average number of cycles each access was blocked
system.cpu0.dcache.avg_blocked_cycles::no_targets          nan                       # average number of cycles each access was blocked
system.cpu0.dcache.writebacks::writebacks    256226958                       # number of writebacks
system.cpu0.dcache.writebacks::total        256226958                       # number of writebacks
system.cpu0.dtb_walker_cache.tags.pwrStateResidencyTicks::UNDEFINED 97149100436500                       # Cumulative time (in ticks) in various power states
system.cpu0.dtb_walker_cache.tags.replacements            0                       # number of replacements
system.cpu0.dtb_walker_cache.tags.tagsinuse            0                       # Cycle average of tags in use
system.cpu0.dtb_walker_cache.tags.total_refs            0                       # Total number of references to valid blocks.
system.cpu0.dtb_walker_cache.tags.sampled_refs            0                       # Sample count of references to valid blocks.
system.cpu0.dtb_walker_cache.tags.avg_refs          nan                       # Average number of references to valid blocks.
system.cpu0.dtb_walker_cache.tags.warmup_cycle            0                       # Cycle when the warmup percentage was hit.
system.cpu0.dtb_walker_cache.tags.tag_accesses            0                       # Number of tag accesses
system.cpu0.dtb_walker_cache.tags.data_accesses            0                       # Number of data accesses
system.cpu0.dtb_walker_cache.pwrStateResidencyTicks::UNDEFINED 97149100436500                       # Cumulative time (in ticks) in various power states
system.cpu0.dtb_walker_cache.blocked_cycles::no_mshrs            0                       # number of cycles access was blocked
system.cpu0.dtb_walker_cache.blocked_cycles::no_targets            0                       # number of cycles access was blocked
system.cpu0.dtb_walker_cache.blocked::no_mshrs            0                       # number of cycles access was blocked
system.cpu0.dtb_walker_cache.blocked::no_targets            0                       # number of cycles access was blocked
system.cpu0.dtb_walker_cache.avg_blocked_cycles::no_mshrs          nan                       # average number of cycles each access was blocked
system.cpu0.dtb_walker_cache.avg_blocked_cycles::no_targets          nan                       # average number of cycles each access was blocked
system.cpu0.icache.tags.pwrStateResidencyTicks::UNDEFINED 97149100436500                       # Cumulative time (in ticks) in various power states
system.cpu0.icache.tags.replacements          9829403                       # number of replacements
system.cpu0.icache.tags.tagsinuse          511.999383                       # Cycle average of tags in use
system.cpu0.icache.tags.total_refs        97166059251                       # Total number of references to valid blocks.
system.cpu0.icache.tags.sampled_refs          9829915                       # Sample count of references to valid blocks.
system.cpu0.icache.tags.avg_refs          9884.730361                       # Average number of references to valid blocks.
system.cpu0.icache.tags.warmup_cycle        699688000                       # Cycle when the warmup percentage was hit.
system.cpu0.icache.tags.occ_blocks::cpu0.inst   511.999383                       # Average occupied blocks per requestor
system.cpu0.icache.tags.occ_percent::cpu0.inst     0.999999                       # Average percentage of cache occupancy
system.cpu0.icache.tags.occ_percent::total     0.999999                       # Average percentage of cache occupancy
system.cpu0.icache.tags.occ_task_id_blocks::1024          512                       # Occupied blocks per task id
system.cpu0.icache.tags.age_task_id_blocks_1024::0           49                       # Occupied blocks per task id
system.cpu0.icache.tags.age_task_id_blocks_1024::1           22                       # Occupied blocks per task id
system.cpu0.icache.tags.age_task_id_blocks_1024::2          203                       # Occupied blocks per task id
system.cpu0.icache.tags.age_task_id_blocks_1024::4          238                       # Occupied blocks per task id
system.cpu0.icache.tags.occ_task_id_percent::1024            1                       # Percentage of cache occupancy per task id
system.cpu0.icache.tags.tag_accesses     220131412023                       # Number of tag accesses
system.cpu0.icache.tags.data_accesses    220131412023                       # Number of data accesses
system.cpu0.icache.pwrStateResidencyTicks::UNDEFINED 97149100436500                       # Cumulative time (in ticks) in various power states
system.cpu0.icache.ReadReq_hits::cpu0.inst 110050961139                       # number of ReadReq hits
system.cpu0.icache.ReadReq_hits::total   110050961139                       # number of ReadReq hits
system.cpu0.icache.demand_hits::cpu0.inst 110050961139                       # number of demand (read+write) hits
system.cpu0.icache.demand_hits::total    110050961139                       # number of demand (read+write) hits
system.cpu0.icache.overall_hits::cpu0.inst 110050961139                       # number of overall hits
system.cpu0.icache.overall_hits::total   110050961139                       # number of overall hits
system.cpu0.icache.ReadReq_misses::cpu0.inst      9829915                       # number of ReadReq misses
system.cpu0.icache.ReadReq_misses::total      9829915                       # number of ReadReq misses
system.cpu0.icache.demand_misses::cpu0.inst      9829915                       # number of demand (read+write) misses
system.cpu0.icache.demand_misses::total       9829915                       # number of demand (read+write) misses
system.cpu0.icache.overall_misses::cpu0.inst      9829915                       # number of overall misses
system.cpu0.icache.overall_misses::total      9829915                       # number of overall misses
system.cpu0.icache.ReadReq_accesses::cpu0.inst 110060791054                       # number of ReadReq accesses(hits+misses)
system.cpu0.icache.ReadReq_accesses::total 110060791054                       # number of ReadReq accesses(hits+misses)
system.cpu0.icache.demand_accesses::cpu0.inst 110060791054                       # number of demand (read+write) accesses
system.cpu0.icache.demand_accesses::total 110060791054                       # number of demand (read+write) accesses
system.cpu0.icache.overall_accesses::cpu0.inst 110060791054                       # number of overall (read+write) accesses
system.cpu0.icache.overall_accesses::total 110060791054                       # number of overall (read+write) accesses
system.cpu0.icache.ReadReq_miss_rate::cpu0.inst     0.000089                       # miss rate for ReadReq accesses
system.cpu0.icache.ReadReq_miss_rate::total     0.000089                       # miss rate for ReadReq accesses
system.cpu0.icache.demand_miss_rate::cpu0.inst     0.000089                       # miss rate for demand accesses
system.cpu0.icache.demand_miss_rate::total     0.000089                       # miss rate for demand accesses
system.cpu0.icache.overall_miss_rate::cpu0.inst     0.000089                       # miss rate for overall accesses
system.cpu0.icache.overall_miss_rate::total     0.000089                       # miss rate for overall accesses
system.cpu0.icache.blocked_cycles::no_mshrs            0                       # number of cycles access was blocked
system.cpu0.icache.blocked_cycles::no_targets            0                       # number of cycles access was blocked
system.cpu0.icache.blocked::no_mshrs                0                       # number of cycles access was blocked
system.cpu0.icache.blocked::no_targets              0                       # number of cycles access was blocked
system.cpu0.icache.avg_blocked_cycles::no_mshrs          nan                       # average number of cycles each access was blocked
system.cpu0.icache.avg_blocked_cycles::no_targets          nan                       # average number of cycles each access was blocked
system.cpu0.icache.writebacks::writebacks      9829403                       # number of writebacks
system.cpu0.icache.writebacks::total          9829403                       # number of writebacks
system.cpu0.itb_walker_cache.tags.pwrStateResidencyTicks::UNDEFINED 97149100436500                       # Cumulative time (in ticks) in various power states
system.cpu0.itb_walker_cache.tags.replacements            0                       # number of replacements
system.cpu0.itb_walker_cache.tags.tagsinuse            0                       # Cycle average of tags in use
system.cpu0.itb_walker_cache.tags.total_refs            0                       # Total number of references to valid blocks.
system.cpu0.itb_walker_cache.tags.sampled_refs            0                       # Sample count of references to valid blocks.
system.cpu0.itb_walker_cache.tags.avg_refs          nan                       # Average number of references to valid blocks.
system.cpu0.itb_walker_cache.tags.warmup_cycle            0                       # Cycle when the warmup percentage was hit.
system.cpu0.itb_walker_cache.tags.tag_accesses            0                       # Number of tag accesses
system.cpu0.itb_walker_cache.tags.data_accesses            0                       # Number of data accesses
system.cpu0.itb_walker_cache.pwrStateResidencyTicks::UNDEFINED 97149100436500                       # Cumulative time (in ticks) in various power states
system.cpu0.itb_walker_cache.blocked_cycles::no_mshrs            0                       # number of cycles access was blocked
system.cpu0.itb_walker_cache.blocked_cycles::no_targets            0                       # number of cycles access was blocked
system.cpu0.itb_walker_cache.blocked::no_mshrs            0                       # number of cycles access was blocked
system.cpu0.itb_walker_cache.blocked::no_targets            0                       # number of cycles access was blocked
system.cpu0.itb_walker_cache.avg_blocked_cycles::no_mshrs          nan                       # average number of cycles each access was blocked
system.cpu0.itb_walker_cache.avg_blocked_cycles::no_targets          nan                       # average number of cycles each access was blocked
system.cpu1.dtb.walker.pwrStateResidencyTicks::UNDEFINED 97149100436500                       # Cumulative time (in ticks) in various power states
system.cpu1.dtb.rdAccesses                          0                       # TLB accesses on read requests
system.cpu1.dtb.wrAccesses                          0                       # TLB accesses on write requests
system.cpu1.dtb.rdMisses                            0                       # TLB misses on read requests
system.cpu1.dtb.wrMisses                            0                       # TLB misses on write requests
system.cpu1.apic_clk_domain.clock                8000                       # Clock period in ticks
system.cpu1.interrupts.pwrStateResidencyTicks::UNDEFINED 97149100436500                       # Cumulative time (in ticks) in various power states
system.cpu1.itb.walker.pwrStateResidencyTicks::UNDEFINED 97149100436500                       # Cumulative time (in ticks) in various power states
system.cpu1.itb.rdAccesses                          0                       # TLB accesses on read requests
system.cpu1.itb.wrAccesses                          0                       # TLB accesses on write requests
system.cpu1.itb.rdMisses                            0                       # TLB misses on read requests
system.cpu1.itb.wrMisses                            0                       # TLB misses on write requests
system.cpu1.pwrStateResidencyTicks::ON   97149100436500                       # Cumulative time (in ticks) in various power states
system.cpu1.numCycles                               0                       # number of cpu cycles simulated
system.cpu1.numWorkItemsStarted                     0                       # number of work items this cpu started
system.cpu1.numWorkItemsCompleted                   0                       # number of work items this cpu completed
system.cpu1.committedInsts                          0                       # Number of instructions committed
system.cpu1.committedOps                            0                       # Number of ops (including micro ops) committed
system.cpu1.num_int_alu_accesses                    0                       # Number of integer alu accesses
system.cpu1.num_fp_alu_accesses                     0                       # Number of float alu accesses
system.cpu1.num_vec_alu_accesses                    0                       # Number of vector alu accesses
system.cpu1.num_func_calls                          0                       # number of times a function call or return occured
system.cpu1.num_conditional_control_insts            0                       # number of instructions that are conditional controls
system.cpu1.num_int_insts                           0                       # number of integer instructions
system.cpu1.num_fp_insts                            0                       # number of float instructions
system.cpu1.num_vec_insts                           0                       # number of vector instructions
system.cpu1.num_int_register_reads                  0                       # number of times the integer registers were read
system.cpu1.num_int_register_writes                 0                       # number of times the integer registers were written
system.cpu1.num_fp_register_reads                   0                       # number of times the floating registers were read
system.cpu1.num_fp_register_writes                  0                       # number of times the floating registers were written
system.cpu1.num_vec_register_reads                  0                       # number of times the vector registers were read
system.cpu1.num_vec_register_writes                 0                       # number of times the vector registers were written
system.cpu1.num_mem_refs                            0                       # number of memory refs
system.cpu1.num_load_insts                          0                       # Number of load instructions
system.cpu1.num_store_insts                         0                       # Number of store instructions
system.cpu1.num_idle_cycles                         0                       # Number of idle cycles
system.cpu1.num_busy_cycles                         0                       # Number of busy cycles
system.cpu1.not_idle_fraction                       0                       # Percentage of non-idle cycles
system.cpu1.idle_fraction                           1                       # Percentage of idle cycles
system.cpu1.op_class::No_OpClass                    0                       # Class of executed instruction
system.cpu1.op_class::IntAlu                        0                       # Class of executed instruction
system.cpu1.op_class::IntMult                       0                       # Class of executed instruction
system.cpu1.op_class::IntDiv                        0                       # Class of executed instruction
system.cpu1.op_class::FloatAdd                      0                       # Class of executed instruction
system.cpu1.op_class::FloatCmp                      0                       # Class of executed instruction
system.cpu1.op_class::FloatCvt                      0                       # Class of executed instruction
system.cpu1.op_class::FloatMult                     0                       # Class of executed instruction
system.cpu1.op_class::FloatMultAcc                  0                       # Class of executed instruction
system.cpu1.op_class::FloatDiv                      0                       # Class of executed instruction
system.cpu1.op_class::FloatMisc                     0                       # Class of executed instruction
system.cpu1.op_class::FloatSqrt                     0                       # Class of executed instruction
system.cpu1.op_class::SimdAdd                       0                       # Class of executed instruction
system.cpu1.op_class::SimdAddAcc                    0                       # Class of executed instruction
system.cpu1.op_class::SimdAlu                       0                       # Class of executed instruction
system.cpu1.op_class::SimdCmp                       0                       # Class of executed instruction
system.cpu1.op_class::SimdCvt                       0                       # Class of executed instruction
system.cpu1.op_class::SimdMisc                      0                       # Class of executed instruction
system.cpu1.op_class::SimdMult                      0                       # Class of executed instruction
system.cpu1.op_class::SimdMultAcc                   0                       # Class of executed instruction
system.cpu1.op_class::SimdShift                     0                       # Class of executed instruction
system.cpu1.op_class::SimdShiftAcc                  0                       # Class of executed instruction
system.cpu1.op_class::SimdSqrt                      0                       # Class of executed instruction
system.cpu1.op_class::SimdFloatAdd                  0                       # Class of executed instruction
system.cpu1.op_class::SimdFloatAlu                  0                       # Class of executed instruction
system.cpu1.op_class::SimdFloatCmp                  0                       # Class of executed instruction
system.cpu1.op_class::SimdFloatCvt                  0                       # Class of executed instruction
system.cpu1.op_class::SimdFloatDiv                  0                       # Class of executed instruction
system.cpu1.op_class::SimdFloatMisc                 0                       # Class of executed instruction
system.cpu1.op_class::SimdFloatMult                 0                       # Class of executed instruction
system.cpu1.op_class::SimdFloatMultAcc              0                       # Class of executed instruction
system.cpu1.op_class::SimdFloatSqrt                 0                       # Class of executed instruction
system.cpu1.op_class::MemRead                       0                       # Class of executed instruction
system.cpu1.op_class::MemWrite                      0                       # Class of executed instruction
system.cpu1.op_class::FloatMemRead                  0                       # Class of executed instruction
system.cpu1.op_class::FloatMemWrite                 0                       # Class of executed instruction
system.cpu1.op_class::IprAccess                     0                       # Class of executed instruction
system.cpu1.op_class::InstPrefetch                  0                       # Class of executed instruction
system.cpu1.op_class::total                         0                       # Class of executed instruction
system.cpu1.dcache.tags.pwrStateResidencyTicks::UNDEFINED 97149100436500                       # Cumulative time (in ticks) in various power states
system.cpu1.dcache.tags.replacements                0                       # number of replacements
system.cpu1.dcache.tags.tagsinuse                   0                       # Cycle average of tags in use
system.cpu1.dcache.tags.total_refs                  0                       # Total number of references to valid blocks.
system.cpu1.dcache.tags.sampled_refs                0                       # Sample count of references to valid blocks.
system.cpu1.dcache.tags.avg_refs                  nan                       # Average number of references to valid blocks.
system.cpu1.dcache.tags.warmup_cycle                0                       # Cycle when the warmup percentage was hit.
system.cpu1.dcache.tags.tag_accesses                0                       # Number of tag accesses
system.cpu1.dcache.tags.data_accesses               0                       # Number of data accesses
system.cpu1.dcache.pwrStateResidencyTicks::UNDEFINED 97149100436500                       # Cumulative time (in ticks) in various power states
system.cpu1.dcache.blocked_cycles::no_mshrs            0                       # number of cycles access was blocked
system.cpu1.dcache.blocked_cycles::no_targets            0                       # number of cycles access was blocked
system.cpu1.dcache.blocked::no_mshrs                0                       # number of cycles access was blocked
system.cpu1.dcache.blocked::no_targets              0                       # number of cycles access was blocked
system.cpu1.dcache.avg_blocked_cycles::no_mshrs          nan                       # average number of cycles each access was blocked
system.cpu1.dcache.avg_blocked_cycles::no_targets          nan                       # average number of cycles each access was blocked
system.cpu1.dtb_walker_cache.tags.pwrStateResidencyTicks::UNDEFINED 97149100436500                       # Cumulative time (in ticks) in various power states
system.cpu1.dtb_walker_cache.tags.replacements            0                       # number of replacements
system.cpu1.dtb_walker_cache.tags.tagsinuse            0                       # Cycle average of tags in use
system.cpu1.dtb_walker_cache.tags.total_refs            0                       # Total number of references to valid blocks.
system.cpu1.dtb_walker_cache.tags.sampled_refs            0                       # Sample count of references to valid blocks.
system.cpu1.dtb_walker_cache.tags.avg_refs          nan                       # Average number of references to valid blocks.
system.cpu1.dtb_walker_cache.tags.warmup_cycle            0                       # Cycle when the warmup percentage was hit.
system.cpu1.dtb_walker_cache.tags.tag_accesses            0                       # Number of tag accesses
system.cpu1.dtb_walker_cache.tags.data_accesses            0                       # Number of data accesses
system.cpu1.dtb_walker_cache.pwrStateResidencyTicks::UNDEFINED 97149100436500                       # Cumulative time (in ticks) in various power states
system.cpu1.dtb_walker_cache.blocked_cycles::no_mshrs            0                       # number of cycles access was blocked
system.cpu1.dtb_walker_cache.blocked_cycles::no_targets            0                       # number of cycles access was blocked
system.cpu1.dtb_walker_cache.blocked::no_mshrs            0                       # number of cycles access was blocked
system.cpu1.dtb_walker_cache.blocked::no_targets            0                       # number of cycles access was blocked
system.cpu1.dtb_walker_cache.avg_blocked_cycles::no_mshrs          nan                       # average number of cycles each access was blocked
system.cpu1.dtb_walker_cache.avg_blocked_cycles::no_targets          nan                       # average number of cycles each access was blocked
system.cpu1.icache.tags.pwrStateResidencyTicks::UNDEFINED 97149100436500                       # Cumulative time (in ticks) in various power states
system.cpu1.icache.tags.replacements                0                       # number of replacements
system.cpu1.icache.tags.tagsinuse                   0                       # Cycle average of tags in use
system.cpu1.icache.tags.total_refs                  0                       # Total number of references to valid blocks.
system.cpu1.icache.tags.sampled_refs                0                       # Sample count of references to valid blocks.
system.cpu1.icache.tags.avg_refs                  nan                       # Average number of references to valid blocks.
system.cpu1.icache.tags.warmup_cycle                0                       # Cycle when the warmup percentage was hit.
system.cpu1.icache.tags.tag_accesses                0                       # Number of tag accesses
system.cpu1.icache.tags.data_accesses               0                       # Number of data accesses
system.cpu1.icache.pwrStateResidencyTicks::UNDEFINED 97149100436500                       # Cumulative time (in ticks) in various power states
system.cpu1.icache.blocked_cycles::no_mshrs            0                       # number of cycles access was blocked
system.cpu1.icache.blocked_cycles::no_targets            0                       # number of cycles access was blocked
system.cpu1.icache.blocked::no_mshrs                0                       # number of cycles access was blocked
system.cpu1.icache.blocked::no_targets              0                       # number of cycles access was blocked
system.cpu1.icache.avg_blocked_cycles::no_mshrs          nan                       # average number of cycles each access was blocked
system.cpu1.icache.avg_blocked_cycles::no_targets          nan                       # average number of cycles each access was blocked
system.cpu1.itb_walker_cache.tags.pwrStateResidencyTicks::UNDEFINED 97149100436500                       # Cumulative time (in ticks) in various power states
system.cpu1.itb_walker_cache.tags.replacements            0                       # number of replacements
system.cpu1.itb_walker_cache.tags.tagsinuse            0                       # Cycle average of tags in use
system.cpu1.itb_walker_cache.tags.total_refs            0                       # Total number of references to valid blocks.
system.cpu1.itb_walker_cache.tags.sampled_refs            0                       # Sample count of references to valid blocks.
system.cpu1.itb_walker_cache.tags.avg_refs          nan                       # Average number of references to valid blocks.
system.cpu1.itb_walker_cache.tags.warmup_cycle            0                       # Cycle when the warmup percentage was hit.
system.cpu1.itb_walker_cache.tags.tag_accesses            0                       # Number of tag accesses
system.cpu1.itb_walker_cache.tags.data_accesses            0                       # Number of data accesses
system.cpu1.itb_walker_cache.pwrStateResidencyTicks::UNDEFINED 97149100436500                       # Cumulative time (in ticks) in various power states
system.cpu1.itb_walker_cache.blocked_cycles::no_mshrs            0                       # number of cycles access was blocked
system.cpu1.itb_walker_cache.blocked_cycles::no_targets            0                       # number of cycles access was blocked
system.cpu1.itb_walker_cache.blocked::no_mshrs            0                       # number of cycles access was blocked
system.cpu1.itb_walker_cache.blocked::no_targets            0                       # number of cycles access was blocked
system.cpu1.itb_walker_cache.avg_blocked_cycles::no_mshrs          nan                       # average number of cycles each access was blocked
system.cpu1.itb_walker_cache.avg_blocked_cycles::no_targets          nan                       # average number of cycles each access was blocked
system.cpu2.dtb.walker.pwrStateResidencyTicks::UNDEFINED 97149100436500                       # Cumulative time (in ticks) in various power states
system.cpu2.dtb.rdAccesses                          0                       # TLB accesses on read requests
system.cpu2.dtb.wrAccesses                          0                       # TLB accesses on write requests
system.cpu2.dtb.rdMisses                            0                       # TLB misses on read requests
system.cpu2.dtb.wrMisses                            0                       # TLB misses on write requests
system.cpu2.apic_clk_domain.clock                8000                       # Clock period in ticks
system.cpu2.interrupts.pwrStateResidencyTicks::UNDEFINED 97149100436500                       # Cumulative time (in ticks) in various power states
system.cpu2.itb.walker.pwrStateResidencyTicks::UNDEFINED 97149100436500                       # Cumulative time (in ticks) in various power states
system.cpu2.itb.rdAccesses                          0                       # TLB accesses on read requests
system.cpu2.itb.wrAccesses                          0                       # TLB accesses on write requests
system.cpu2.itb.rdMisses                            0                       # TLB misses on read requests
system.cpu2.itb.wrMisses                            0                       # TLB misses on write requests
system.cpu2.pwrStateResidencyTicks::ON   97149100436500                       # Cumulative time (in ticks) in various power states
system.cpu2.numCycles                               0                       # number of cpu cycles simulated
system.cpu2.numWorkItemsStarted                     0                       # number of work items this cpu started
system.cpu2.numWorkItemsCompleted                   0                       # number of work items this cpu completed
system.cpu2.committedInsts                          0                       # Number of instructions committed
system.cpu2.committedOps                            0                       # Number of ops (including micro ops) committed
system.cpu2.num_int_alu_accesses                    0                       # Number of integer alu accesses
system.cpu2.num_fp_alu_accesses                     0                       # Number of float alu accesses
system.cpu2.num_vec_alu_accesses                    0                       # Number of vector alu accesses
system.cpu2.num_func_calls                          0                       # number of times a function call or return occured
system.cpu2.num_conditional_control_insts            0                       # number of instructions that are conditional controls
system.cpu2.num_int_insts                           0                       # number of integer instructions
system.cpu2.num_fp_insts                            0                       # number of float instructions
system.cpu2.num_vec_insts                           0                       # number of vector instructions
system.cpu2.num_int_register_reads                  0                       # number of times the integer registers were read
system.cpu2.num_int_register_writes                 0                       # number of times the integer registers were written
system.cpu2.num_fp_register_reads                   0                       # number of times the floating registers were read
system.cpu2.num_fp_register_writes                  0                       # number of times the floating registers were written
system.cpu2.num_vec_register_reads                  0                       # number of times the vector registers were read
system.cpu2.num_vec_register_writes                 0                       # number of times the vector registers were written
system.cpu2.num_mem_refs                            0                       # number of memory refs
system.cpu2.num_load_insts                          0                       # Number of load instructions
system.cpu2.num_store_insts                         0                       # Number of store instructions
system.cpu2.num_idle_cycles                         0                       # Number of idle cycles
system.cpu2.num_busy_cycles                         0                       # Number of busy cycles
system.cpu2.not_idle_fraction                       0                       # Percentage of non-idle cycles
system.cpu2.idle_fraction                           1                       # Percentage of idle cycles
system.cpu2.op_class::No_OpClass                    0                       # Class of executed instruction
system.cpu2.op_class::IntAlu                        0                       # Class of executed instruction
system.cpu2.op_class::IntMult                       0                       # Class of executed instruction
system.cpu2.op_class::IntDiv                        0                       # Class of executed instruction
system.cpu2.op_class::FloatAdd                      0                       # Class of executed instruction
system.cpu2.op_class::FloatCmp                      0                       # Class of executed instruction
system.cpu2.op_class::FloatCvt                      0                       # Class of executed instruction
system.cpu2.op_class::FloatMult                     0                       # Class of executed instruction
system.cpu2.op_class::FloatMultAcc                  0                       # Class of executed instruction
system.cpu2.op_class::FloatDiv                      0                       # Class of executed instruction
system.cpu2.op_class::FloatMisc                     0                       # Class of executed instruction
system.cpu2.op_class::FloatSqrt                     0                       # Class of executed instruction
system.cpu2.op_class::SimdAdd                       0                       # Class of executed instruction
system.cpu2.op_class::SimdAddAcc                    0                       # Class of executed instruction
system.cpu2.op_class::SimdAlu                       0                       # Class of executed instruction
system.cpu2.op_class::SimdCmp                       0                       # Class of executed instruction
system.cpu2.op_class::SimdCvt                       0                       # Class of executed instruction
system.cpu2.op_class::SimdMisc                      0                       # Class of executed instruction
system.cpu2.op_class::SimdMult                      0                       # Class of executed instruction
system.cpu2.op_class::SimdMultAcc                   0                       # Class of executed instruction
system.cpu2.op_class::SimdShift                     0                       # Class of executed instruction
system.cpu2.op_class::SimdShiftAcc                  0                       # Class of executed instruction
[...]
system.l3.tags.occ_blocks::cpu0.inst         8.198988                       # Average occupied blocks per requestor
system.l3.tags.occ_blocks::cpu0.data     130999.137430                       # Average occupied blocks per requestor
system.l3.tags.occ_percent::writebacks       0.000085                       # Average percentage of cache occupancy
system.l3.tags.occ_percent::cpu0.inst        0.000063                       # Average percentage of cache occupancy
system.l3.tags.occ_percent::cpu0.data        0.999444                       # Average percentage of cache occupancy
system.l3.tags.occ_percent::total            0.999592                       # Average percentage of cache occupancy
system.l3.tags.occ_task_id_blocks::1024        131072                       # Occupied blocks per task id
system.l3.tags.age_task_id_blocks_1024::0          138                       # Occupied blocks per task id
system.l3.tags.age_task_id_blocks_1024::1          511                       # Occupied blocks per task id
system.l3.tags.age_task_id_blocks_1024::2         9918                       # Occupied blocks per task id
system.l3.tags.age_task_id_blocks_1024::3       120170                       # Occupied blocks per task id
system.l3.tags.age_task_id_blocks_1024::4          335                       # Occupied blocks per task id
system.l3.tags.occ_task_id_percent::1024            1                       # Percentage of cache occupancy per task id
system.l3.tags.tag_accesses               19873649280                       # Number of tag accesses
system.l3.tags.data_accesses              19873649280                       # Number of data accesses
system.l3.pwrStateResidencyTicks::UNDEFINED 97149100436500                       # Cumulative time (in ticks) in various power states
system.l3.WritebackDirty_hits::writebacks    246624647                       # number of WritebackDirty hits
system.l3.WritebackDirty_hits::total        246624647                       # number of WritebackDirty hits
system.l3.ReadExReq_hits::cpu0.data           2740306                       # number of ReadExReq hits
system.l3.ReadExReq_hits::total               2740306                       # number of ReadExReq hits
system.l3.ReadSharedReq_hits::cpu0.inst         74561                       # number of ReadSharedReq hits
system.l3.ReadSharedReq_hits::cpu0.data      81306261                       # number of ReadSharedReq hits
system.l3.ReadSharedReq_hits::total          81380822                       # number of ReadSharedReq hits
system.l3.demand_hits::cpu0.inst                74561                       # number of demand (read+write) hits
system.l3.demand_hits::cpu0.data             84046567                       # number of demand (read+write) hits
system.l3.demand_hits::total                 84121128                       # number of demand (read+write) hits
system.l3.overall_hits::cpu0.inst               74561                       # number of overall hits
system.l3.overall_hits::cpu0.data            84046567                       # number of overall hits
system.l3.overall_hits::total                84121128                       # number of overall hits
system.l3.ReadExReq_misses::cpu0.data        57525383                       # number of ReadExReq misses
system.l3.ReadExReq_misses::total            57525383                       # number of ReadExReq misses
system.l3.ReadSharedReq_misses::cpu0.inst         6303                       # number of ReadSharedReq misses
system.l3.ReadSharedReq_misses::cpu0.data    463129529                       # number of ReadSharedReq misses
system.l3.ReadSharedReq_misses::total       463135832                       # number of ReadSharedReq misses
system.l3.demand_misses::cpu0.inst               6303                       # number of demand (read+write) misses
system.l3.demand_misses::cpu0.data          520654912                       # number of demand (read+write) misses
system.l3.demand_misses::total              520661215                       # number of demand (read+write) misses
system.l3.overall_misses::cpu0.inst              6303                       # number of overall misses
system.l3.overall_misses::cpu0.data         520654912                       # number of overall misses
system.l3.overall_misses::total             520661215                       # number of overall misses
system.l3.WritebackDirty_accesses::writebacks    246624647                       # number of WritebackDirty accesses(hits+misses)
system.l3.WritebackDirty_accesses::total    246624647                       # number of WritebackDirty accesses(hits+misses)
system.l3.ReadExReq_accesses::cpu0.data      60265689                       # number of ReadExReq accesses(hits+misses)
system.l3.ReadExReq_accesses::total          60265689                       # number of ReadExReq accesses(hits+misses)
system.l3.ReadSharedReq_accesses::cpu0.inst        80864                       # number of ReadSharedReq accesses(hits+misses)
system.l3.ReadSharedReq_accesses::cpu0.data    544435790                       # number of ReadSharedReq accesses(hits+misses)
system.l3.ReadSharedReq_accesses::total     544516654                       # number of ReadSharedReq accesses(hits+misses)
system.l3.demand_accesses::cpu0.inst            80864                       # number of demand (read+write) accesses
system.l3.demand_accesses::cpu0.data        604701479                       # number of demand (read+write) accesses
system.l3.demand_accesses::total            604782343                       # number of demand (read+write) accesses
system.l3.overall_accesses::cpu0.inst           80864                       # number of overall (read+write) accesses
system.l3.overall_accesses::cpu0.data       604701479                       # number of overall (read+write) accesses
system.l3.overall_accesses::total           604782343                       # number of overall (read+write) accesses
system.l3.ReadExReq_miss_rate::cpu0.data     0.954530                       # miss rate for ReadExReq accesses
system.l3.ReadExReq_miss_rate::total         0.954530                       # miss rate for ReadExReq accesses
system.l3.ReadSharedReq_miss_rate::cpu0.inst     0.077946                       # miss rate for ReadSharedReq accesses
system.l3.ReadSharedReq_miss_rate::cpu0.data     0.850660                       # miss rate for ReadSharedReq accesses
system.l3.ReadSharedReq_miss_rate::total     0.850545                       # miss rate for ReadSharedReq accesses
system.l3.demand_miss_rate::cpu0.inst        0.077946                       # miss rate for demand accesses
system.l3.demand_miss_rate::cpu0.data        0.861011                       # miss rate for demand accesses
system.l3.demand_miss_rate::total            0.860907                       # miss rate for demand accesses
system.l3.overall_miss_rate::cpu0.inst       0.077946                       # miss rate for overall accesses
system.l3.overall_miss_rate::cpu0.data       0.861011                       # miss rate for overall accesses
system.l3.overall_miss_rate::total           0.860907                       # miss rate for overall accesses
system.l3.blocked_cycles::no_mshrs                  0                       # number of cycles access was blocked
system.l3.blocked_cycles::no_targets                0                       # number of cycles access was blocked
system.l3.blocked::no_mshrs                         0                       # number of cycles access was blocked
system.l3.blocked::no_targets                       0                       # number of cycles access was blocked
system.l3.avg_blocked_cycles::no_mshrs            nan                       # average number of cycles each access was blocked
system.l3.avg_blocked_cycles::no_targets          nan                       # average number of cycles each access was blocked
system.l3.writebacks::writebacks            228241024                       # number of writebacks
system.l3.writebacks::total                 228241024                       # number of writebacks
system.membus.snoop_filter.tot_requests    1041190845                       # Total number of requests made to the snoop filter.
system.membus.snoop_filter.hit_single_requests    520529630                       # Number of requests hitting in the snoop filter with a single holder of the requested data.
system.membus.snoop_filter.hit_multi_requests            0                       # Number of requests hitting in the snoop filter with multiple (>1) holders of the requested data.
system.membus.snoop_filter.tot_snoops               0                       # Total number of snoops made to the snoop filter.
system.membus.snoop_filter.hit_single_snoops            0                       # Number of snoops hitting in the snoop filter with a single holder of the requested data.
system.membus.snoop_filter.hit_multi_snoops            0                       # Number of snoops hitting in the snoop filter with multiple (>1) holders of the requested data.
system.membus.pwrStateResidencyTicks::UNDEFINED 97149100436500                       # Cumulative time (in ticks) in various power states
system.membus.trans_dist::ReadResp          463135832                       # Transaction distribution
system.membus.trans_dist::WritebackDirty    228241024                       # Transaction distribution
system.membus.trans_dist::CleanEvict        292288606                       # Transaction distribution
system.membus.trans_dist::ReadExReq          57525383                       # Transaction distribution
system.membus.trans_dist::ReadExResp         57525383                       # Transaction distribution
system.membus.trans_dist::ReadSharedReq     463135832                       # Transaction distribution
system.membus.pkt_count_system.l3.mem_side::system.mem_ctrls.port   1561852060                       # Packet count per connected master and slave (bytes)
system.membus.pkt_count_system.l3.mem_side::total   1561852060                       # Packet count per connected master and slave (bytes)
system.membus.pkt_count::total             1561852060                       # Packet count per connected master and slave (bytes)
system.membus.pkt_size_system.l3.mem_side::system.mem_ctrls.port  47929743296                       # Cumulative packet size per connected master and slave (bytes)
system.membus.pkt_size_system.l3.mem_side::total  47929743296                       # Cumulative packet size per connected master and slave (bytes)
system.membus.pkt_size::total             47929743296                       # Cumulative packet size per connected master and slave (bytes)
system.membus.snoops                                0                       # Total snoops (count)
system.membus.snoopTraffic                          0                       # Total snoop traffic (bytes)
system.membus.snoop_fanout::samples        1041190845                       # Request fanout histogram
system.membus.snoop_fanout::mean                    0                       # Request fanout histogram
system.membus.snoop_fanout::stdev                   0                       # Request fanout histogram
system.membus.snoop_fanout::underflows              0      0.00%      0.00% # Request fanout histogram
system.membus.snoop_fanout::0              1041190845    100.00%    100.00% # Request fanout histogram
system.membus.snoop_fanout::1                       0      0.00%    100.00% # Request fanout histogram
system.membus.snoop_fanout::overflows               0      0.00%    100.00% # Request fanout histogram
system.membus.snoop_fanout::min_value               0                       # Request fanout histogram
system.membus.snoop_fanout::max_value               0                       # Request fanout histogram
system.membus.snoop_fanout::total          1041190845                       # Request fanout histogram
system.tol2bus.snoop_filter.tot_requests   1258645040                       # Total number of requests made to the snoop filter.
system.tol2bus.snoop_filter.hit_single_requests    629322008                       # Number of requests hitting in the snoop filter with a single holder of the requested data.
system.tol2bus.snoop_filter.hit_multi_requests            1                       # Number of requests hitting in the snoop filter with multiple (>1) holders of the requested data.
system.tol2bus.snoop_filter.tot_snoops        1125405                       # Total number of snoops made to the snoop filter.
system.tol2bus.snoop_filter.hit_single_snoops      1125405                       # Number of snoops hitting in the snoop filter with a single holder of the requested data.
system.tol2bus.snoop_filter.hit_multi_snoops            0                       # Number of snoops hitting in the snoop filter with multiple (>1) holders of the requested data.
system.tol2bus.pwrStateResidencyTicks::UNDEFINED 97149100436500                       # Cumulative time (in ticks) in various power states
system.tol2bus.trans_dist::ReadResp         564276904                       # Transaction distribution
system.tol2bus.trans_dist::WritebackDirty    256226958                       # Transaction distribution
system.tol2bus.trans_dist::WritebackClean      9829403                       # Transaction distribution
system.tol2bus.trans_dist::CleanEvict       363265647                       # Transaction distribution
system.tol2bus.trans_dist::ReadExReq         65046128                       # Transaction distribution
system.tol2bus.trans_dist::ReadExResp        65046128                       # Transaction distribution
system.tol2bus.trans_dist::ReadCleanReq       9829915                       # Transaction distribution
system.tol2bus.trans_dist::ReadSharedReq    554446989                       # Transaction distribution
system.tol2bus.pkt_count_system.cpu0.icache.mem_side::system.l2.cpu_side     29489233                       # Packet count per connected master and slave (bytes)
system.tol2bus.pkt_count_system.cpu0.dcache.mem_side::system.l2.cpu_side   1858478839                       # Packet count per connected master and slave (bytes)
system.tol2bus.pkt_count::total            1887968072                       # Packet count per connected master and slave (bytes)
system.tol2bus.pkt_size_system.cpu0.icache.mem_side::system.l2.cpu_side   1258196352                       # Cumulative packet size per connected master and slave (bytes)
system.tol2bus.pkt_size_system.cpu0.dcache.mem_side::system.l2.cpu_side  56046084800                       # Cumulative packet size per connected master and slave (bytes)
system.tol2bus.pkt_size::total            57304281152                       # Cumulative packet size per connected master and slave (bytes)
system.tol2bus.snoops                      1126091555                       # Total snoops (count)
system.tol2bus.snoopTraffic               30391402944                       # Total snoop traffic (bytes)
system.tol2bus.snoop_fanout::samples       2384736595                       # Request fanout histogram
system.tol2bus.snoop_fanout::mean            0.000472                       # Request fanout histogram
system.tol2bus.snoop_fanout::stdev           0.021719                       # Request fanout histogram
system.tol2bus.snoop_fanout::underflows             0      0.00%      0.00% # Request fanout histogram
system.tol2bus.snoop_fanout::0             2383611188     99.95%     99.95% # Request fanout histogram
system.tol2bus.snoop_fanout::1                1125407      0.05%    100.00% # Request fanout histogram
system.tol2bus.snoop_fanout::2                      0      0.00%    100.00% # Request fanout histogram
system.tol2bus.snoop_fanout::3                      0      0.00%    100.00% # Request fanout histogram
system.tol2bus.snoop_fanout::4                      0      0.00%    100.00% # Request fanout histogram
system.tol2bus.snoop_fanout::5                      0      0.00%    100.00% # Request fanout histogram
system.tol2bus.snoop_fanout::6                      0      0.00%    100.00% # Request fanout histogram
system.tol2bus.snoop_fanout::7                      0      0.00%    100.00% # Request fanout histogram
system.tol2bus.snoop_fanout::8                      0      0.00%    100.00% # Request fanout histogram
system.tol2bus.snoop_fanout::9                      0      0.00%    100.00% # Request fanout histogram
system.tol2bus.snoop_fanout::10                     0      0.00%    100.00% # Request fanout histogram
system.tol2bus.snoop_fanout::11                     0      0.00%    100.00% # Request fanout histogram
system.tol2bus.snoop_fanout::12                     0      0.00%    100.00% # Request fanout histogram
system.tol2bus.snoop_fanout::13                     0      0.00%    100.00% # Request fanout histogram
system.tol2bus.snoop_fanout::14                     0      0.00%    100.00% # Request fanout histogram
system.tol2bus.snoop_fanout::15                     0      0.00%    100.00% # Request fanout histogram
system.tol2bus.snoop_fanout::16                     0      0.00%    100.00% # Request fanout histogram
system.tol2bus.snoop_fanout::overflows              0      0.00%    100.00% # Request fanout histogram
system.tol2bus.snoop_fanout::min_value              0                       # Request fanout histogram
system.tol2bus.snoop_fanout::max_value              1                       # Request fanout histogram
system.tol2bus.snoop_fanout::total         2384736595                       # Request fanout histogram
system.tol3bus.pwrStateResidencyTicks::UNDEFINED 97149100436500                       # Cumulative time (in ticks) in various power states
system.tol3bus.trans_dist::ReadResp         544516654                       # Transaction distribution
system.tol3bus.trans_dist::WritebackDirty    246624647                       # Transaction distribution
system.tol3bus.trans_dist::CleanEvict       358153361                       # Transaction distribution
system.tol3bus.trans_dist::ReadExReq         60265689                       # Transaction distribution
system.tol3bus.trans_dist::ReadExResp        60265689                       # Transaction distribution
system.tol3bus.trans_dist::ReadSharedReq    544516654                       # Transaction distribution
system.tol3bus.pkt_count_system.l2.mem_side::system.l3.cpu_side   1814342694                       # Packet count per connected master and slave (bytes)
system.tol3bus.pkt_size_system.l2.mem_side::system.l3.cpu_side  54490047360                       # Cumulative packet size per connected master and slave (bytes)
system.tol3bus.snoops                       520552592                       # Total snoops (count)
system.tol3bus.snoopTraffic               14607425536                       # Total snoop traffic (bytes)
system.tol3bus.snoop_fanout::samples       1730112943                       # Request fanout histogram
system.tol3bus.snoop_fanout::mean            0.300878                       # Request fanout histogram
system.tol3bus.snoop_fanout::stdev           0.458640                       # Request fanout histogram
system.tol3bus.snoop_fanout::underflows             0      0.00%      0.00% # Request fanout histogram
system.tol3bus.snoop_fanout::0             1209560351     69.91%     69.91% # Request fanout histogram
system.tol3bus.snoop_fanout::1              520552592     30.09%    100.00% # Request fanout histogram
system.tol3bus.snoop_fanout::overflows              0      0.00%    100.00% # Request fanout histogram
system.tol3bus.snoop_fanout::min_value              0                       # Request fanout histogram
system.tol3bus.snoop_fanout::max_value              1                       # Request fanout histogram
system.tol3bus.snoop_fanout::total         1730112943                       # Request fanout histogram

---------- End Simulation Statistics   ----------
