
---------- Begin Simulation Statistics ----------
sim_seconds                                127.915896                       # Number of seconds simulated
sim_ticks                                127915896248000                       # Number of ticks simulated
final_tick                               127915896248000                       # Number of ticks from beginning of simulation (restored from checkpoints and never reset)
sim_freq                                 1000000000000                       # Frequency of simulated ticks
host_inst_rate                                1317643                       # Simulator instruction rate (inst/s)
host_op_rate                                  2604392                       # Simulator op (including micro ops) rate (op/s)
host_tick_rate                             1505623277                       # Simulator tick rate (ticks/s)
host_mem_usage                                8792256                       # Number of bytes of host memory used
host_seconds                                 84958.77                       # Real time elapsed on the host
sim_insts                                111945287441                       # Number of instructions simulated
sim_ops                                  221265912458                       # Number of ops (including micro ops) simulated
system.voltage_domain.voltage                       1                       # Voltage in Volts
system.clk_domain.clock                          1000                       # Clock period in ticks
system.mem_ctrls.pwrStateResidencyTicks::UNDEFINED 127915896248000                       # Cumulative time (in ticks) in various power states
system.mem_ctrls.bytes_read::cpu0.inst         274560                       # Number of bytes read from this memory
system.mem_ctrls.bytes_read::cpu0.data    28307592192                       # Number of bytes read from this memory
system.mem_ctrls.bytes_read::total        28307866752                       # Number of bytes read from this memory
system.mem_ctrls.bytes_inst_read::cpu0.inst       274560                       # Number of instructions bytes read from this memory
system.mem_ctrls.bytes_inst_read::total        274560                       # Number of instructions bytes read from this memory
system.mem_ctrls.bytes_written::writebacks  14621336640                       # Number of bytes written to this memory
system.mem_ctrls.bytes_written::total     14621336640                       # Number of bytes written to this memory
system.mem_ctrls.num_reads::cpu0.inst            4290                       # Number of read requests responded to by this memory
system.mem_ctrls.num_reads::cpu0.data       442306128                       # Number of read requests responded to by this memory
system.mem_ctrls.num_reads::total           442310418                       # Number of read requests responded to by this memory
system.mem_ctrls.num_writes::writebacks     228458385                       # Number of write requests responded to by this memory
system.mem_ctrls.num_writes::total          228458385                       # Number of write requests responded to by this memory
system.mem_ctrls.bw_read::cpu0.inst              2146                       # Total read bandwidth from this memory (bytes/s)
system.mem_ctrls.bw_read::cpu0.data         221298470                       # Total read bandwidth from this memory (bytes/s)
system.mem_ctrls.bw_read::total             221300617                       # Total read bandwidth from this memory (bytes/s)
system.mem_ctrls.bw_inst_read::cpu0.inst         2146                       # Instruction read bandwidth from this memory (bytes/s)
system.mem_ctrls.bw_inst_read::total             2146                       # Instruction read bandwidth from this memory (bytes/s)
system.mem_ctrls.bw_write::writebacks       114304297                       # Write bandwidth from this memory (bytes/s)
system.mem_ctrls.bw_write::total            114304297                       # Write bandwidth from this memory (bytes/s)
system.mem_ctrls.bw_total::writebacks       114304297                       # Total bandwidth to/from this memory (bytes/s)
system.mem_ctrls.bw_total::cpu0.inst             2146                       # Total bandwidth to/from this memory (bytes/s)
system.mem_ctrls.bw_total::cpu0.data        221298470                       # Total bandwidth to/from this memory (bytes/s)
system.mem_ctrls.bw_total::total            335604914                       # Total bandwidth to/from this memory (bytes/s)
system.mem_ctrls.readReqs                           0                       # Number of read requests accepted
system.mem_ctrls.writeReqs                          0                       # Number of write requests accepted
system.mem_ctrls.readBursts                         0                       # Number of DRAM read bursts, including those serviced by the write queue
system.mem_ctrls.writeBursts                        0                       # Number of DRAM write bursts, including those merged in the write queue
system.mem_ctrls.bytesReadDRAM                      0                       # Total number of bytes read from DRAM
system.mem_ctrls.bytesReadWrQ                       0                       # Total number of bytes read from write queue
system.mem_ctrls.bytesWritten                       0                       # Total number of bytes written to DRAM
system.mem_ctrls.bytesReadSys                       0                       # Total read bytes from the system interface side
system.mem_ctrls.bytesWrittenSys                    0                       # Total written bytes from the system interface side
system.mem_ctrls.servicedByWrQ                      0                       # Number of DRAM read bursts serviced by the write queue
system.mem_ctrls.mergedWrBursts                     0                       # Number of DRAM write bursts merged with an existing one
system.mem_ctrls.neitherReadNorWriteReqs            0                       # Number of requests that are neither read nor write
system.mem_ctrls.perBankRdBursts::0                 0                       # Per bank write bursts
system.mem_ctrls.perBankRdBursts::1                 0                       # Per bank write bursts
system.mem_ctrls.perBankRdBursts::2                 0                       # Per bank write bursts
system.mem_ctrls.perBankRdBursts::3                 0                       # Per bank write bursts
system.mem_ctrls.perBankRdBursts::4                 0                       # Per bank write bursts
system.mem_ctrls.perBankRdBursts::5                 0                       # Per bank write bursts
system.mem_ctrls.perBankRdBursts::6                 0                       # Per bank write bursts
system.mem_ctrls.perBankRdBursts::7                 0                       # Per bank write bursts
system.mem_ctrls.perBankRdBursts::8                 0                       # Per bank write bursts
system.mem_ctrls.perBankRdBursts::9                 0                       # Per bank write bursts
system.mem_ctrls.perBankRdBursts::10                0                       # Per bank write bursts
system.mem_ctrls.perBankRdBursts::11                0                       # Per bank write bursts
system.mem_ctrls.perBankRdBursts::12                0                       # Per bank write bursts
system.mem_ctrls.perBankRdBursts::13                0                       # Per bank write bursts
system.mem_ctrls.perBankRdBursts::14                0                       # Per bank write bursts
system.mem_ctrls.perBankRdBursts::15                0                       # Per bank write bursts
system.mem_ctrls.perBankWrBursts::0                 0                       # Per bank write bursts
system.mem_ctrls.perBankWrBursts::1                 0                       # Per bank write bursts
system.mem_ctrls.perBankWrBursts::2                 0                       # Per bank write bursts
system.mem_ctrls.perBankWrBursts::3                 0                       # Per bank write bursts
system.mem_ctrls.perBankWrBursts::4                 0                       # Per bank write bursts
system.mem_ctrls.perBankWrBursts::5                 0                       # Per bank write bursts
system.mem_ctrls.perBankWrBursts::6                 0                       # Per bank write bursts
system.mem_ctrls.perBankWrBursts::7                 0                       # Per bank write bursts
system.mem_ctrls.perBankWrBursts::8                 0                       # Per bank write bursts
system.mem_ctrls.perBankWrBursts::9                 0                       # Per bank write bursts
system.mem_ctrls.perBankWrBursts::10                0                       # Per bank write bursts
system.mem_ctrls.perBankWrBursts::11                0                       # Per bank write bursts
system.mem_ctrls.perBankWrBursts::12                0                       # Per bank write bursts
system.mem_ctrls.perBankWrBursts::13                0                       # Per bank write bursts
system.mem_ctrls.perBankWrBursts::14                0                       # Per bank write bursts
system.mem_ctrls.perBankWrBursts::15                0                       # Per bank write bursts
system.mem_ctrls.numRdRetry                         0                       # Number of times read queue was full causing retry
system.mem_ctrls.numWrRetry                         0                       # Number of times write queue was full causing retry
system.mem_ctrls.totGap                             0                       # Total gap between requests
system.mem_ctrls.readPktSize::0                     0                       # Read request sizes (log2)
system.mem_ctrls.readPktSize::1                     0                       # Read request sizes (log2)
system.mem_ctrls.readPktSize::2                     0                       # Read request sizes (log2)
system.mem_ctrls.readPktSize::3                     0                       # Read request sizes (log2)
system.mem_ctrls.readPktSize::4                     0                       # Read request sizes (log2)
system.mem_ctrls.readPktSize::5                     0                       # Read request sizes (log2)
system.mem_ctrls.readPktSize::6                     0                       # Read request sizes (log2)
system.mem_ctrls.writePktSize::0                    0                       # Write request sizes (log2)
system.mem_ctrls.writePktSize::1                    0                       # Write request sizes (log2)
system.mem_ctrls.writePktSize::2                    0                       # Write request sizes (log2)
system.mem_ctrls.writePktSize::3                    0                       # Write request sizes (log2)
system.mem_ctrls.writePktSize::4                    0                       # Write request sizes (log2)
system.mem_ctrls.writePktSize::5                    0                       # Write request sizes (log2)
system.mem_ctrls.writePktSize::6                    0                       # Write request sizes (log2)
system.mem_ctrls.rdQLenPdf::0                       0                       # What read queue length does an incoming req see
system.mem_ctrls.rdQLenPdf::1                       0                       # What read queue length does an incoming req see
system.mem_ctrls.rdQLenPdf::2                       0                       # What read queue length does an incoming req see
system.mem_ctrls.rdQLenPdf::3                       0                       # What read queue length does an incoming req see
system.mem_ctrls.rdQLenPdf::4                       0                       # What read queue length does an incoming req see
system.mem_ctrls.rdQLenPdf::5                       0                       # What read queue length does an incoming req see
system.mem_ctrls.rdQLenPdf::6                       0                       # What read queue length does an incoming req see
system.mem_ctrls.rdQLenPdf::7                       0                       # What read queue length does an incoming req see
system.mem_ctrls.rdQLenPdf::8                       0                       # What read queue length does an incoming req see
system.mem_ctrls.rdQLenPdf::9                       0                       # What read queue length does an incoming req see
system.mem_ctrls.rdQLenPdf::10                      0                       # What read queue length does an incoming req see
system.mem_ctrls.rdQLenPdf::11                      0                       # What read queue length does an incoming req see
system.mem_ctrls.rdQLenPdf::12                      0                       # What read queue length does an incoming req see
system.mem_ctrls.rdQLenPdf::13                      0                       # What read queue length does an incoming req see
system.mem_ctrls.rdQLenPdf::14                      0                       # What read queue length does an incoming req see
system.mem_ctrls.rdQLenPdf::15                      0                       # What read queue length does an incoming req see
system.mem_ctrls.rdQLenPdf::16                      0                       # What read queue length does an incoming req see
system.mem_ctrls.rdQLenPdf::17                      0                       # What read queue length does an incoming req see
system.mem_ctrls.rdQLenPdf::18                      0                       # What read queue length does an incoming req see
system.mem_ctrls.rdQLenPdf::19                      0                       # What read queue length does an incoming req see
system.mem_ctrls.rdQLenPdf::20                      0                       # What read queue length does an incoming req see
system.mem_ctrls.rdQLenPdf::21                      0                       # What read queue length does an incoming req see
system.mem_ctrls.rdQLenPdf::22                      0                       # What read queue length does an incoming req see
system.mem_ctrls.rdQLenPdf::23                      0                       # What read queue length does an incoming req see
system.mem_ctrls.rdQLenPdf::24                      0                       # What read queue length does an incoming req see
system.mem_ctrls.rdQLenPdf::25                      0                       # What read queue length does an incoming req see
system.mem_ctrls.rdQLenPdf::26                      0                       # What read queue length does an incoming req see
system.mem_ctrls.rdQLenPdf::27                      0                       # What read queue length does an incoming req see
system.mem_ctrls.rdQLenPdf::28                      0                       # What read queue length does an incoming req see
system.mem_ctrls.rdQLenPdf::29                      0                       # What read queue length does an incoming req see
system.mem_ctrls.rdQLenPdf::30                      0                       # What read queue length does an incoming req see
system.mem_ctrls.rdQLenPdf::31                      0                       # What read queue length does an incoming req see
system.mem_ctrls.wrQLenPdf::0                       0                       # What write queue length does an incoming req see
system.mem_ctrls.wrQLenPdf::1                       0                       # What write queue length does an incoming req see
system.mem_ctrls.wrQLenPdf::2                       0                       # What write queue length does an incoming req see
system.mem_ctrls.wrQLenPdf::3                       0                       # What write queue length does an incoming req see
system.mem_ctrls.wrQLenPdf::4                       0                       # What write queue length does an incoming req see
system.mem_ctrls.wrQLenPdf::5                       0                       # What write queue length does an incoming req see
system.mem_ctrls.wrQLenPdf::6                       0                       # What write queue length does an incoming req see
system.mem_ctrls.wrQLenPdf::7                       0                       # What write queue length does an incoming req see
system.mem_ctrls.wrQLenPdf::8                       0                       # What write queue length does an incoming req see
system.mem_ctrls.wrQLenPdf::9                       0                       # What write queue length does an incoming req see
system.mem_ctrls.wrQLenPdf::10                      0                       # What write queue length does an incoming req see
system.mem_ctrls.wrQLenPdf::11                      0                       # What write queue length does an incoming req see
system.mem_ctrls.wrQLenPdf::12                      0                       # What write queue length does an incoming req see
system.mem_ctrls.wrQLenPdf::13                      0                       # What write queue length does an incoming req see
system.mem_ctrls.wrQLenPdf::14                      0                       # What write queue length does an incoming req see
system.mem_ctrls.wrQLenPdf::15                      0                       # What write queue length does an incoming req see
system.mem_ctrls.wrQLenPdf::16                      0                       # What write queue length does an incoming req see
system.mem_ctrls.wrQLenPdf::17                      0                       # What write queue length does an incoming req see
system.mem_ctrls.wrQLenPdf::18                      0                       # What write queue length does an incoming req see
system.mem_ctrls.wrQLenPdf::19                      0                       # What write queue length does an incoming req see
system.mem_ctrls.wrQLenPdf::20                      0                       # What write queue length does an incoming req see
system.mem_ctrls.wrQLenPdf::21                      0                       # What write queue length does an incoming req see
system.mem_ctrls.wrQLenPdf::22                      0                       # What write queue length does an incoming req see
system.mem_ctrls.wrQLenPdf::23                      0                       # What write queue length does an incoming req see
system.mem_ctrls.wrQLenPdf::24                      0                       # What write queue length does an incoming req see
system.mem_ctrls.wrQLenPdf::25                      0                       # What write queue length does an incoming req see
system.mem_ctrls.wrQLenPdf::26                      0                       # What write queue length does an incoming req see
system.mem_ctrls.wrQLenPdf::27                      0                       # What write queue length does an incoming req see
system.mem_ctrls.wrQLenPdf::28                      0                       # What write queue length does an incoming req see
system.mem_ctrls.wrQLenPdf::29                      0                       # What write queue length does an incoming req see
system.mem_ctrls.wrQLenPdf::30                      0                       # What write queue length does an incoming req see
system.mem_ctrls.wrQLenPdf::31                      0                       # What write queue length does an incoming req see
system.mem_ctrls.wrQLenPdf::32                      0                       # What write queue length does an incoming req see
system.mem_ctrls.wrQLenPdf::33                      0                       # What write queue length does an incoming req see
system.mem_ctrls.wrQLenPdf::34                      0                       # What write queue length does an incoming req see
system.mem_ctrls.wrQLenPdf::35                      0                       # What write queue length does an incoming req see
system.mem_ctrls.wrQLenPdf::36                      0                       # What write queue length does an incoming req see
system.mem_ctrls.wrQLenPdf::37                      0                       # What write queue length does an incoming req see
system.mem_ctrls.wrQLenPdf::38                      0                       # What write queue length does an incoming req see
system.mem_ctrls.wrQLenPdf::39                      0                       # What write queue length does an incoming req see
system.mem_ctrls.wrQLenPdf::40                      0                       # What write queue length does an incoming req see
system.mem_ctrls.wrQLenPdf::41                      0                       # What write queue length does an incoming req see
system.mem_ctrls.wrQLenPdf::42                      0                       # What write queue length does an incoming req see
system.mem_ctrls.wrQLenPdf::43                      0                       # What write queue length does an incoming req see
system.mem_ctrls.wrQLenPdf::44                      0                       # What write queue length does an incoming req see
system.mem_ctrls.wrQLenPdf::45                      0                       # What write queue length does an incoming req see
system.mem_ctrls.wrQLenPdf::46                      0                       # What write queue length does an incoming req see
system.mem_ctrls.wrQLenPdf::47                      0                       # What write queue length does an incoming req see
system.mem_ctrls.wrQLenPdf::48                      0                       # What write queue length does an incoming req see
system.mem_ctrls.wrQLenPdf::49                      0                       # What write queue length does an incoming req see
system.mem_ctrls.wrQLenPdf::50                      0                       # What write queue length does an incoming req see
system.mem_ctrls.wrQLenPdf::51                      0                       # What write queue length does an incoming req see
system.mem_ctrls.wrQLenPdf::52                      0                       # What write queue length does an incoming req see
system.mem_ctrls.wrQLenPdf::53                      0                       # What write queue length does an incoming req see
system.mem_ctrls.wrQLenPdf::54                      0                       # What write queue length does an incoming req see
system.mem_ctrls.wrQLenPdf::55                      0                       # What write queue length does an incoming req see
system.mem_ctrls.wrQLenPdf::56                      0                       # What write queue length does an incoming req see
system.mem_ctrls.wrQLenPdf::57                      0                       # What write queue length does an incoming req see
system.mem_ctrls.wrQLenPdf::58                      0                       # What write queue length does an incoming req see
system.mem_ctrls.wrQLenPdf::59                      0                       # What write queue length does an incoming req see
system.mem_ctrls.wrQLenPdf::60                      0                       # What write queue length does an incoming req see
system.mem_ctrls.wrQLenPdf::61                      0                       # What write queue length does an incoming req see
system.mem_ctrls.wrQLenPdf::62                      0                       # What write queue length does an incoming req see
system.mem_ctrls.wrQLenPdf::63                      0                       # What write queue length does an incoming req see
system.mem_ctrls.totQLat                            0                       # Total ticks spent queuing
system.mem_ctrls.totMemAccLat                       0                       # Total ticks spent from burst creation until serviced by the DRAM
system.mem_ctrls.totBusLat                          0                       # Total ticks spent in databus transfers
system.mem_ctrls.avgQLat                          nan                       # Average queueing delay per DRAM burst
system.mem_ctrls.avgBusLat                        nan                       # Average bus latency per DRAM burst
system.mem_ctrls.avgMemAccLat                     nan                       # Average memory access latency per DRAM burst
system.mem_ctrls.avgRdBW                         0.00                       # Average DRAM read bandwidth in MiByte/s
system.mem_ctrls.avgWrBW                         0.00                       # Average achieved write bandwidth in MiByte/s
system.mem_ctrls.avgRdBWSys                      0.00                       # Average system read bandwidth in MiByte/s
system.mem_ctrls.avgWrBWSys                      0.00                       # Average system write bandwidth in MiByte/s
system.mem_ctrls.peakBW                      12800.00                       # Theoretical peak bandwidth in MiByte/s
system.mem_ctrls.busUtil                         0.00                       # Data bus utilization in percentage
system.mem_ctrls.busUtilRead                     0.00                       # Data bus utilization in percentage for reads
system.mem_ctrls.busUtilWrite                    0.00                       # Data bus utilization in percentage for writes
system.mem_ctrls.avgRdQLen                       0.00                       # Average read queue length when enqueuing
system.mem_ctrls.avgWrQLen                       0.00                       # Average write queue length when enqueuing
system.mem_ctrls.readRowHits                        0                       # Number of row buffer hits during reads
system.mem_ctrls.writeRowHits                       0                       # Number of row buffer hits during writes
system.mem_ctrls.readRowHitRate                   nan                       # Row buffer hit rate for reads
system.mem_ctrls.writeRowHitRate                  nan                       # Row buffer hit rate for writes
system.mem_ctrls.avgGap                           nan                       # Average gap between requests
system.mem_ctrls.pageHitRate                      nan                       # Row buffer hit rate, read and write combined
system.mem_ctrls_0.actEnergy                        0                       # Energy for activate commands per rank (pJ)
system.mem_ctrls_0.preEnergy                        0                       # Energy for precharge commands per rank (pJ)
system.mem_ctrls_0.readEnergy                       0                       # Energy for read commands per rank (pJ)
system.mem_ctrls_0.writeEnergy                      0                       # Energy for write commands per rank (pJ)
system.mem_ctrls_0.refreshEnergy                    0                       # Energy for refresh commands per rank (pJ)
system.mem_ctrls_0.actBackEnergy                    0                       # Energy for active background per rank (pJ)
system.mem_ctrls_0.preBackEnergy         49119704159520                       # Energy for precharge background per rank (pJ)
system.mem_ctrls_0.actPowerDownEnergy               0                       # Energy for active power-down per rank (pJ)
system.mem_ctrls_0.prePowerDownEnergy               0                       # Energy for precharge power-down per rank (pJ)
system.mem_ctrls_0.selfRefreshEnergy                0                       # Energy for self refresh per rank (pJ)
system.mem_ctrls_0.totalEnergy           49119704159520                       # Total energy per rank (pJ)
system.mem_ctrls_0.averagePower                   384                       # Core power per rank (mW)
system.mem_ctrls_0.totalIdleTime                    0                       # Total Idle time Per DRAM Rank
system.mem_ctrls_0.memoryStateTime::IDLE 127915896248000                       # Time in different power states
system.mem_ctrls_0.memoryStateTime::REF             0                       # Time in different power states
system.mem_ctrls_0.memoryStateTime::SREF            0                       # Time in different power states
system.mem_ctrls_0.memoryStateTime::PRE_PDN            0                       # Time in different power states
system.mem_ctrls_0.memoryStateTime::ACT             0                       # Time in different power states
system.mem_ctrls_0.memoryStateTime::ACT_PDN            0                       # Time in different power states
system.mem_ctrls_1.actEnergy                        0                       # Energy for activate commands per rank (pJ)
system.mem_ctrls_1.preEnergy                        0                       # Energy for precharge commands per rank (pJ)
system.mem_ctrls_1.readEnergy                       0                       # Energy for read commands per rank (pJ)
system.mem_ctrls_1.writeEnergy                      0                       # Energy for write commands per rank (pJ)
system.mem_ctrls_1.refreshEnergy                    0                       # Energy for refresh commands per rank (pJ)
system.mem_ctrls_1.actBackEnergy                    0                       # Energy for active background per rank (pJ)
system.mem_ctrls_1.preBackEnergy         49119704159520                       # Energy for precharge background per rank (pJ)
system.mem_ctrls_1.actPowerDownEnergy               0                       # Energy for active power-down per rank (pJ)
system.mem_ctrls_1.prePowerDownEnergy               0                       # Energy for precharge power-down per rank (pJ)
system.mem_ctrls_1.selfRefreshEnergy                0                       # Energy for self refresh per rank (pJ)
system.mem_ctrls_1.totalEnergy           49119704159520                       # Total energy per rank (pJ)
system.mem_ctrls_1.averagePower                   384                       # Core power per rank (mW)
system.mem_ctrls_1.totalIdleTime                    0                       # Total Idle time Per DRAM Rank
system.mem_ctrls_1.memoryStateTime::IDLE 127915896248000                       # Time in different power states
system.mem_ctrls_1.memoryStateTime::REF             0                       # Time in different power states
system.mem_ctrls_1.memoryStateTime::SREF            0                       # Time in different power states
system.mem_ctrls_1.memoryStateTime::PRE_PDN            0                       # Time in different power states
system.mem_ctrls_1.memoryStateTime::ACT             0                       # Time in different power states
system.mem_ctrls_1.memoryStateTime::ACT_PDN            0                       # Time in different power states
system.pwrStateResidencyTicks::UNDEFINED 127915896248000                       # Cumulative time (in ticks) in various power states
system.cpu_voltage_domain.voltage                   1                       # Voltage in Volts
system.cpu_clk_domain.clock                       500                       # Clock period in ticks
system.cpu0.dtb.walker.pwrStateResidencyTicks::UNDEFINED 127915896248000                       # Cumulative time (in ticks) in various power states
system.cpu0.dtb.rdAccesses                22963810328                       # TLB accesses on read requests
system.cpu0.dtb.wrAccesses                13525196888                       # TLB accesses on write requests
system.cpu0.dtb.rdMisses                    256875424                       # TLB misses on read requests
system.cpu0.dtb.wrMisses                     42269200                       # TLB misses on write requests
system.cpu0.apic_clk_domain.clock                8000                       # Clock period in ticks
system.cpu0.interrupts.pwrStateResidencyTicks::UNDEFINED 127915896248000                       # Cumulative time (in ticks) in various power states
system.cpu0.itb.walker.pwrStateResidencyTicks::UNDEFINED 127915896248000                       # Cumulative time (in ticks) in various power states
system.cpu0.itb.rdAccesses                          0                       # TLB accesses on read requests
system.cpu0.itb.wrAccesses               146511726814                       # TLB accesses on write requests
system.cpu0.itb.rdMisses                            0                       # TLB misses on read requests
system.cpu0.itb.wrMisses                          234                       # TLB misses on write requests
system.cpu0.workload.numSyscalls                40756                       # Number of system calls
system.cpu0.pwrStateResidencyTicks::ON   127915896248000                       # Cumulative time (in ticks) in various power states
system.cpu0.numCycles                    255832351831                       # number of cpu cycles simulated
system.cpu0.numWorkItemsStarted                     0                       # number of work items this cpu started
system.cpu0.numWorkItemsCompleted                   0                       # number of work items this cpu completed
system.cpu0.committedInsts               111945287441                       # Number of instructions committed
system.cpu0.committedOps                 221265912458                       # Number of ops (including micro ops) committed
system.cpu0.num_int_alu_accesses         219303125829                       # Number of integer alu accesses
system.cpu0.num_fp_alu_accesses            1806801655                       # Number of float alu accesses
system.cpu0.num_vec_alu_accesses                    0                       # Number of vector alu accesses
system.cpu0.num_func_calls                 3295263483                       # number of times a function call or return occured
system.cpu0.num_conditional_control_insts  20116122461                       # number of instructions that are conditional controls
system.cpu0.num_int_insts                219303125829                       # number of integer instructions
system.cpu0.num_fp_insts                   1806801655                       # number of float instructions
system.cpu0.num_vec_insts                           0                       # number of vector instructions
system.cpu0.num_int_register_reads       433417645329                       # number of times the integer registers were read
system.cpu0.num_int_register_writes      186400782382                       # number of times the integer registers were written
system.cpu0.num_fp_register_reads          2656744078                       # number of times the floating registers were read
system.cpu0.num_fp_register_writes         1344200911                       # number of times the floating registers were written
system.cpu0.num_vec_register_reads                  0                       # number of times the vector registers were read
system.cpu0.num_vec_register_writes                 0                       # number of times the vector registers were written
system.cpu0.num_cc_register_reads        150978582101                       # number of times the CC registers were read
system.cpu0.num_cc_register_writes        74278550570                       # number of times the CC registers were written
system.cpu0.num_mem_refs                  36470294381                       # number of memory refs
system.cpu0.num_load_insts                22950217021                       # Number of load instructions
system.cpu0.num_store_insts               13520077360                       # Number of store instructions
system.cpu0.num_idle_cycles                         0                       # Number of idle cycles
system.cpu0.num_busy_cycles              255832351831                       # Number of busy cycles
system.cpu0.not_idle_fraction                       1                       # Percentage of non-idle cycles
system.cpu0.idle_fraction                           0                       # Percentage of idle cycles
system.cpu0.Branches                      25730194205                       # Number of branches fetched
system.cpu0.op_class::No_OpClass            758114523      0.34%      0.34% # Class of executed instruction
system.cpu0.op_class::IntAlu             179716211320     81.22%     81.56% # Class of executed instruction
system.cpu0.op_class::IntMult                34919049      0.02%     81.58% # Class of executed instruction
system.cpu0.op_class::IntDiv               3038124740      1.37%     82.95% # Class of executed instruction
system.cpu0.op_class::FloatAdd             1248248445      0.56%     83.52% # Class of executed instruction
system.cpu0.op_class::FloatCmp                      0      0.00%     83.52% # Class of executed instruction
system.cpu0.op_class::FloatCvt                      0      0.00%     83.52% # Class of executed instruction
system.cpu0.op_class::FloatMult                     0      0.00%     83.52% # Class of executed instruction
system.cpu0.op_class::FloatMultAcc                  0      0.00%     83.52% # Class of executed instruction
system.cpu0.op_class::FloatDiv                      0      0.00%     83.52% # Class of executed instruction
system.cpu0.op_class::FloatMisc                     0      0.00%     83.52% # Class of executed instruction
system.cpu0.op_class::FloatSqrt                     0      0.00%     83.52% # Class of executed instruction
system.cpu0.op_class::SimdAdd                       0      0.00%     83.52% # Class of executed instruction
system.cpu0.op_class::SimdAddAcc                    0      0.00%     83.52% # Class of executed instruction
system.cpu0.op_class::SimdAlu                       0      0.00%     83.52% # Class of executed instruction
system.cpu0.op_class::SimdCmp                       0      0.00%     83.52% # Class of executed instruction
system.cpu0.op_class::SimdCvt                       0      0.00%     83.52% # Class of executed instruction
system.cpu0.op_class::SimdMisc                      0      0.00%     83.52% # Class of executed instruction
system.cpu0.op_class::SimdMult                      0      0.00%     83.52% # Class of executed instruction
system.cpu0.op_class::SimdMultAcc                   0      0.00%     83.52% # Class of executed instruction
system.cpu0.op_class::SimdShift                     0      0.00%     83.52% # Class of executed instruction
system.cpu0.op_class::SimdShiftAcc                  0      0.00%     83.52% # Class of executed instruction
system.cpu0.op_class::SimdSqrt                      0      0.00%     83.52% # Class of executed instruction
system.cpu0.op_class::SimdFloatAdd                  0      0.00%     83.52% # Class of executed instruction
system.cpu0.op_class::SimdFloatAlu                  0      0.00%     83.52% # Class of executed instruction
system.cpu0.op_class::SimdFloatCmp                  0      0.00%     83.52% # Class of executed instruction
system.cpu0.op_class::SimdFloatCvt                  0      0.00%     83.52% # Class of executed instruction
system.cpu0.op_class::SimdFloatDiv                  0      0.00%     83.52% # Class of executed instruction
system.cpu0.op_class::SimdFloatMisc                 0      0.00%     83.52% # Class of executed instruction
system.cpu0.op_class::SimdFloatMult                 0      0.00%     83.52% # Class of executed instruction
system.cpu0.op_class::SimdFloatMultAcc              0      0.00%     83.52% # Class of executed instruction
system.cpu0.op_class::SimdFloatSqrt                 0      0.00%     83.52% # Class of executed instruction
system.cpu0.op_class::MemRead             22859782282     10.33%     93.85% # Class of executed instruction
system.cpu0.op_class::MemWrite            13210782556      5.97%     99.82% # Class of executed instruction
system.cpu0.op_class::FloatMemRead           90434739      0.04%     99.86% # Class of executed instruction
system.cpu0.op_class::FloatMemWrite         309294804      0.14%    100.00% # Class of executed instruction
system.cpu0.op_class::IprAccess                     0      0.00%    100.00% # Class of executed instruction
system.cpu0.op_class::InstPrefetch                  0      0.00%    100.00% # Class of executed instruction
system.cpu0.op_class::total              221265912458                       # Class of executed instruction
system.cpu0.dcache.tags.pwrStateResidencyTicks::UNDEFINED 127915896248000                       # Cumulative time (in ticks) in various power states
system.cpu0.dcache.tags.replacements        633077898                       # number of replacements
system.cpu0.dcache.tags.tagsinuse         1023.998259                       # Cycle average of tags in use
system.cpu0.dcache.tags.total_refs        35855928294                       # Total number of references to valid blocks.
system.cpu0.dcache.tags.sampled_refs        633078922                       # Sample count of references to valid blocks.
system.cpu0.dcache.tags.avg_refs            56.637375                       # Average number of references to valid blocks.
system.cpu0.dcache.tags.warmup_cycle       1104950500                       # Cycle when the warmup percentage was hit.
system.cpu0.dcache.tags.occ_blocks::cpu0.data  1023.998259                       # Average occupied blocks per requestor
system.cpu0.dcache.tags.occ_percent::cpu0.data     0.999998                       # Average percentage of cache occupancy
system.cpu0.dcache.tags.occ_percent::total     0.999998                       # Average percentage of cache occupancy
system.cpu0.dcache.tags.occ_task_id_blocks::1024         1024                       # Occupied blocks per task id
system.cpu0.dcache.tags.age_task_id_blocks_1024::0          100                       # Occupied blocks per task id
system.cpu0.dcache.tags.age_task_id_blocks_1024::1          475                       # Occupied blocks per task id
system.cpu0.dcache.tags.age_task_id_blocks_1024::2          445                       # Occupied blocks per task id
system.cpu0.dcache.tags.age_task_id_blocks_1024::3            4                       # Occupied blocks per task id
system.cpu0.dcache.tags.occ_task_id_percent::1024            1                       # Percentage of cache occupancy per task id
system.cpu0.dcache.tags.tag_accesses      73611093354                       # Number of tag accesses
system.cpu0.dcache.tags.data_accesses     73611093354                       # Number of data accesses
system.cpu0.dcache.pwrStateResidencyTicks::UNDEFINED 127915896248000                       # Cumulative time (in ticks) in various power states
system.cpu0.dcache.ReadReq_hits::cpu0.data  22426220041                       # number of ReadReq hits
system.cpu0.dcache.ReadReq_hits::total    22426220041                       # number of ReadReq hits
system.cpu0.dcache.WriteReq_hits::cpu0.data  13429708253                       # number of WriteReq hits
system.cpu0.dcache.WriteReq_hits::total   13429708253                       # number of WriteReq hits
system.cpu0.dcache.demand_hits::cpu0.data  35855928294                       # number of demand (read+write) hits
system.cpu0.dcache.demand_hits::total     35855928294                       # number of demand (read+write) hits
system.cpu0.dcache.overall_hits::cpu0.data  35855928294                       # number of overall hits
system.cpu0.dcache.overall_hits::total    35855928294                       # number of overall hits
system.cpu0.dcache.ReadReq_misses::cpu0.data    537590287                       # number of ReadReq misses
system.cpu0.dcache.ReadReq_misses::total    537590287                       # number of ReadReq misses
system.cpu0.dcache.WriteReq_misses::cpu0.data     95488635                       # number of WriteReq misses
system.cpu0.dcache.WriteReq_misses::total     95488635                       # number of WriteReq misses
system.cpu0.dcache.demand_misses::cpu0.data    633078922                       # number of demand (read+write) misses
system.cpu0.dcache.demand_misses::total     633078922                       # number of demand (read+write) misses
system.cpu0.dcache.overall_misses::cpu0.data    633078922                       # number of overall misses
system.cpu0.dcache.overall_misses::total    633078922                       # number of overall misses
system.cpu0.dcache.ReadReq_accesses::cpu0.data  22963810328                       # number of ReadReq accesses(hits+misses)
system.cpu0.dcache.ReadReq_accesses::total  22963810328                       # number of ReadReq accesses(hits+misses)
system.cpu0.dcache.WriteReq_accesses::cpu0.data  13525196888                       # number of WriteReq accesses(hits+misses)
system.cpu0.dcache.WriteReq_accesses::total  13525196888                       # number of WriteReq accesses(hits+misses)
system.cpu0.dcache.demand_accesses::cpu0.data  36489007216                       # number of demand (read+write) accesses
system.cpu0.dcache.demand_accesses::total  36489007216                       # number of demand (read+write) accesses
system.cpu0.dcache.overall_accesses::cpu0.data  36489007216                       # number of overall (read+write) accesses
system.cpu0.dcache.overall_accesses::total  36489007216                       # number of overall (read+write) accesses
system.cpu0.dcache.ReadReq_miss_rate::cpu0.data     0.023410                       # miss rate for ReadReq accesses
system.cpu0.dcache.ReadReq_miss_rate::total     0.023410                       # miss rate for ReadReq accesses
system.cpu0.dcache.WriteReq_miss_rate::cpu0.data     0.007060                       # miss rate for WriteReq accesses
system.cpu0.dcache.WriteReq_miss_rate::total     0.007060                       # miss rate for WriteReq accesses
system.cpu0.dcache.demand_miss_rate::cpu0.data     0.017350                       # miss rate for demand accesses
system.cpu0.dcache.demand_miss_rate::total     0.017350                       # miss rate for demand accesses
system.cpu0.dcache.overall_miss_rate::cpu0.data     0.017350                       # miss rate for overall accesses
system.cpu0.dcache.overall_miss_rate::total     0.017350                       # miss rate for overall accesses
system.cpu0.dcache.blocked_cycles::no_mshrs            0                       # number of cycles access was blocked
system.cpu0.dcache.blocked_cycles::no_targets            0                       # number of cycles access was blocked
system.cpu0.dcache.blocked::no_mshrs                0                       # number of cycles access was blocked
system.cpu0.dcache.blocked::no_targets              0                       # number of cycles access was blocked
system.cpu0.dcache.avg_blocked_cycles::no_mshrs          nan                       # average number of cycles each access was blocked
system.cpu0.dcache.avg_blocked_cycles::no_targets          nan                       # average number of cycles each access was blocked
system.cpu0.dcache.writebacks::writebacks    355338951                       # number of writebacks
system.cpu0.dcache.writebacks::total        355338951                       # number of writebacks
system.cpu0.dtb_walker_cache.tags.pwrStateResidencyTicks::UNDEFINED 127915896248000                       # Cumulative time (in ticks) in various power states
system.cpu0.dtb_walker_cache.tags.replacements            0                       # number of replacements
system.cpu0.dtb_walker_cache.tags.tagsinuse            0                       # Cycle average of tags in use
system.cpu0.dtb_walker_cache.tags.total_refs            0                       # Total number of references to valid blocks.
system.cpu0.dtb_walker_cache.tags.sampled_refs            0                       # Sample count of references to valid blocks.
system.cpu0.dtb_walker_cache.tags.avg_refs          nan                       # Average number of references to valid blocks.
system.cpu0.dtb_walker_cache.tags.warmup_cycle            0                       # Cycle when the warmup percentage was hit.
system.cpu0.dtb_walker_cache.tags.tag_accesses            0                       # Number of tag accesses
system.cpu0.dtb_walker_cache.tags.data_accesses            0                       # Number of data accesses
system.cpu0.dtb_walker_cache.pwrStateResidencyTicks::UNDEFINED 127915896248000                       # Cumulative time (in ticks) in various power states
system.cpu0.dtb_walker_cache.blocked_cycles::no_mshrs            0                       # number of cycles access was blocked
system.cpu0.dtb_walker_cache.blocked_cycles::no_targets            0                       # number of cycles access was blocked
system.cpu0.dtb_walker_cache.blocked::no_mshrs            0                       # number of cycles access was blocked
system.cpu0.dtb_walker_cache.blocked::no_targets            0                       # number of cycles access was blocked
system.cpu0.dtb_walker_cache.avg_blocked_cycles::no_mshrs          nan                       # average number of cycles each access was blocked
system.cpu0.dtb_walker_cache.avg_blocked_cycles::no_targets          nan                       # average number of cycles each access was blocked
system.cpu0.icache.tags.pwrStateResidencyTicks::UNDEFINED 127915896248000                       # Cumulative time (in ticks) in various power states
system.cpu0.icache.tags.replacements          7585317                       # number of replacements
system.cpu0.icache.tags.tagsinuse          511.999531                       # Cycle average of tags in use
system.cpu0.icache.tags.total_refs       137914206393                       # Total number of references to valid blocks.
system.cpu0.icache.tags.sampled_refs          7585829                       # Sample count of references to valid blocks.
system.cpu0.icache.tags.avg_refs         18180.505571                       # Average number of references to valid blocks.
system.cpu0.icache.tags.warmup_cycle        699688000                       # Cycle when the warmup percentage was hit.
system.cpu0.icache.tags.occ_blocks::cpu0.inst   511.999531                       # Average occupied blocks per requestor
system.cpu0.icache.tags.occ_percent::cpu0.inst     0.999999                       # Average percentage of cache occupancy
system.cpu0.icache.tags.occ_percent::total     0.999999                       # Average percentage of cache occupancy
system.cpu0.icache.tags.occ_task_id_blocks::1024          512                       # Occupied blocks per task id
system.cpu0.icache.tags.age_task_id_blocks_1024::0           49                       # Occupied blocks per task id
system.cpu0.icache.tags.age_task_id_blocks_1024::1           22                       # Occupied blocks per task id
system.cpu0.icache.tags.age_task_id_blocks_1024::2          206                       # Occupied blocks per task id
system.cpu0.icache.tags.age_task_id_blocks_1024::4          235                       # Occupied blocks per task id
system.cpu0.icache.tags.occ_task_id_percent::1024            1                       # Percentage of cache occupancy per task id
system.cpu0.icache.tags.tag_accesses     293031039457                       # Number of tag accesses
system.cpu0.icache.tags.data_accesses    293031039457                       # Number of data accesses
system.cpu0.icache.pwrStateResidencyTicks::UNDEFINED 127915896248000                       # Cumulative time (in ticks) in various power states
system.cpu0.icache.ReadReq_hits::cpu0.inst 146504140985                       # number of ReadReq hits
system.cpu0.icache.ReadReq_hits::total   146504140985                       # number of ReadReq hits
system.cpu0.icache.demand_hits::cpu0.inst 146504140985                       # number of demand (read+write) hits
system.cpu0.icache.demand_hits::total    146504140985                       # number of demand (read+write) hits
system.cpu0.icache.overall_hits::cpu0.inst 146504140985                       # number of overall hits
system.cpu0.icache.overall_hits::total   146504140985                       # number of overall hits
system.cpu0.icache.ReadReq_misses::cpu0.inst      7585829                       # number of ReadReq misses
system.cpu0.icache.ReadReq_misses::total      7585829                       # number of ReadReq misses
system.cpu0.icache.demand_misses::cpu0.inst      7585829                       # number of demand (read+write) misses
system.cpu0.icache.demand_misses::total       7585829                       # number of demand (read+write) misses
system.cpu0.icache.overall_misses::cpu0.inst      7585829                       # number of overall misses
system.cpu0.icache.overall_misses::total      7585829                       # number of overall misses
system.cpu0.icache.ReadReq_accesses::cpu0.inst 146511726814                       # number of ReadReq accesses(hits+misses)
system.cpu0.icache.ReadReq_accesses::total 146511726814                       # number of ReadReq accesses(hits+misses)
system.cpu0.icache.demand_accesses::cpu0.inst 146511726814                       # number of demand (read+write) accesses
system.cpu0.icache.demand_accesses::total 146511726814                       # number of demand (read+write) accesses
system.cpu0.icache.overall_accesses::cpu0.inst 146511726814                       # number of overall (read+write) accesses
system.cpu0.icache.overall_accesses::total 146511726814                       # number of overall (read+write) accesses
system.cpu0.icache.ReadReq_miss_rate::cpu0.inst     0.000052                       # miss rate for ReadReq accesses
system.cpu0.icache.ReadReq_miss_rate::total     0.000052                       # miss rate for ReadReq accesses
system.cpu0.icache.demand_miss_rate::cpu0.inst     0.000052                       # miss rate for demand accesses
system.cpu0.icache.demand_miss_rate::total     0.000052                       # miss rate for demand accesses
system.cpu0.icache.overall_miss_rate::cpu0.inst     0.000052                       # miss rate for overall accesses
system.cpu0.icache.overall_miss_rate::total     0.000052                       # miss rate for overall accesses
system.cpu0.icache.blocked_cycles::no_mshrs            0                       # number of cycles access was blocked
system.cpu0.icache.blocked_cycles::no_targets            0                       # number of cycles access was blocked
system.cpu0.icache.blocked::no_mshrs                0                       # number of cycles access was blocked
system.cpu0.icache.blocked::no_targets              0                       # number of cycles access was blocked
system.cpu0.icache.avg_blocked_cycles::no_mshrs          nan                       # average number of cycles each access was blocked
system.cpu0.icache.avg_blocked_cycles::no_targets          nan                       # average number of cycles each access was blocked
system.cpu0.icache.writebacks::writebacks      7585317                       # number of writebacks
system.cpu0.icache.writebacks::total          7585317                       # number of writebacks
system.cpu0.itb_walker_cache.tags.pwrStateResidencyTicks::UNDEFINED 127915896248000                       # Cumulative time (in ticks) in various power states
system.cpu0.itb_walker_cache.tags.replacements            0                       # number of replacements
system.cpu0.itb_walker_cache.tags.tagsinuse            0                       # Cycle average of tags in use
system.cpu0.itb_walker_cache.tags.total_refs            0                       # Total number of references to valid blocks.
system.cpu0.itb_walker_cache.tags.sampled_refs            0                       # Sample count of references to valid blocks.
system.cpu0.itb_walker_cache.tags.avg_refs          nan                       # Average number of references to valid blocks.
system.cpu0.itb_walker_cache.tags.warmup_cycle            0                       # Cycle when the warmup percentage was hit.
system.cpu0.itb_walker_cache.tags.tag_accesses            0                       # Number of tag accesses
system.cpu0.itb_walker_cache.tags.data_accesses            0                       # Number of data accesses
system.cpu0.itb_walker_cache.pwrStateResidencyTicks::UNDEFINED 127915896248000                       # Cumulative time (in ticks) in various power states
system.cpu0.itb_walker_cache.blocked_cycles::no_mshrs            0                       # number of cycles access was blocked
system.cpu0.itb_walker_cache.blocked_cycles::no_targets            0                       # number of cycles access was blocked
system.cpu0.itb_walker_cache.blocked::no_mshrs            0                       # number of cycles access was blocked
system.cpu0.itb_walker_cache.blocked::no_targets            0                       # number of cycles access was blocked
system.cpu0.itb_walker_cache.avg_blocked_cycles::no_mshrs          nan                       # average number of cycles each access was blocked
system.cpu0.itb_walker_cache.avg_blocked_cycles::no_targets          nan                       # average number of cycles each access was blocked
system.cpu1.dtb.walker.pwrStateResidencyTicks::UNDEFINED 127915896248000                       # Cumulative time (in ticks) in various power states
system.cpu1.dtb.rdAccesses                          0                       # TLB accesses on read requests
system.cpu1.dtb.wrAccesses                          0                       # TLB accesses on write requests
system.cpu1.dtb.rdMisses                            0                       # TLB misses on read requests
system.cpu1.dtb.wrMisses                            0                       # TLB misses on write requests
system.cpu1.apic_clk_domain.clock                8000                       # Clock period in ticks
system.cpu1.interrupts.pwrStateResidencyTicks::UNDEFINED 127915896248000                       # Cumulative time (in ticks) in various power states
system.cpu1.itb.walker.pwrStateResidencyTicks::UNDEFINED 127915896248000                       # Cumulative time (in ticks) in various power states
system.cpu1.itb.rdAccesses                          0                       # TLB accesses on read requests
system.cpu1.itb.wrAccesses                          0                       # TLB accesses on write requests
system.cpu1.itb.rdMisses                            0                       # TLB misses on read requests
system.cpu1.itb.wrMisses                            0                       # TLB misses on write requests
system.cpu1.pwrStateResidencyTicks::ON   127915896248000                       # Cumulative time (in ticks) in various power states
system.cpu1.numCycles                               0                       # number of cpu cycles simulated
system.cpu1.numWorkItemsStarted                     0                       # number of work items this cpu started
system.cpu1.numWorkItemsCompleted                   0                       # number of work items this cpu completed
system.cpu1.committedInsts                          0                       # Number of instructions committed
system.cpu1.committedOps                            0                       # Number of ops (including micro ops) committed
system.cpu1.num_int_alu_accesses                    0                       # Number of integer alu accesses
system.cpu1.num_fp_alu_accesses                     0                       # Number of float alu accesses
system.cpu1.num_vec_alu_accesses                    0                       # Number of vector alu accesses
system.cpu1.num_func_calls                          0                       # number of times a function call or return occured
system.cpu1.num_conditional_control_insts            0                       # number of instructions that are conditional controls
system.cpu1.num_int_insts                           0                       # number of integer instructions
system.cpu1.num_fp_insts                            0                       # number of float instructions
system.cpu1.num_vec_insts                           0                       # number of vector instructions
system.cpu1.num_int_register_reads                  0                       # number of times the integer registers were read
system.cpu1.num_int_register_writes                 0                       # number of times the integer registers were written
system.cpu1.num_fp_register_reads                   0                       # number of times the floating registers were read
system.cpu1.num_fp_register_writes                  0                       # number of times the floating registers were written
system.cpu1.num_vec_register_reads                  0                       # number of times the vector registers were read
system.cpu1.num_vec_register_writes                 0                       # number of times the vector registers were written
system.cpu1.num_mem_refs                            0                       # number of memory refs
system.cpu1.num_load_insts                          0                       # Number of load instructions
system.cpu1.num_store_insts                         0                       # Number of store instructions
system.cpu1.num_idle_cycles                         0                       # Number of idle cycles
system.cpu1.num_busy_cycles                         0                       # Number of busy cycles
system.cpu1.not_idle_fraction                       0                       # Percentage of non-idle cycles
system.cpu1.idle_fraction                           1                       # Percentage of idle cycles
system.cpu1.op_class::No_OpClass                    0                       # Class of executed instruction
system.cpu1.op_class::IntAlu                        0                       # Class of executed instruction
system.cpu1.op_class::IntMult                       0                       # Class of executed instruction
system.cpu1.op_class::IntDiv                        0                       # Class of executed instruction
system.cpu1.op_class::FloatAdd                      0                       # Class of executed instruction
system.cpu1.op_class::FloatCmp                      0                       # Class of executed instruction
system.cpu1.op_class::FloatCvt                      0                       # Class of executed instruction
system.cpu1.op_class::FloatMult                     0                       # Class of executed instruction
system.cpu1.op_class::FloatMultAcc                  0                       # Class of executed instruction
system.cpu1.op_class::FloatDiv                      0                       # Class of executed instruction
system.cpu1.op_class::FloatMisc                     0                       # Class of executed instruction
system.cpu1.op_class::FloatSqrt                     0                       # Class of executed instruction
system.cpu1.op_class::SimdAdd                       0                       # Class of executed instruction
system.cpu1.op_class::SimdAddAcc                    0                       # Class of executed instruction
system.cpu1.op_class::SimdAlu                       0                       # Class of executed instruction
system.cpu1.op_class::SimdCmp                       0                       # Class of executed instruction
system.cpu1.op_class::SimdCvt                       0                       # Class of executed instruction
system.cpu1.op_class::SimdMisc                      0                       # Class of executed instruction
system.cpu1.op_class::SimdMult                      0                       # Class of executed instruction
system.cpu1.op_class::SimdMultAcc                   0                       # Class of executed instruction
system.cpu1.op_class::SimdShift                     0                       # Class of executed instruction
system.cpu1.op_class::SimdShiftAcc                  0                       # Class of executed instruction
system.cpu1.op_class::SimdSqrt                      0                       # Class of executed instruction
system.cpu1.op_class::SimdFloatAdd                  0                       # Class of executed instruction
system.cpu1.op_class::SimdFloatAlu                  0                       # Class of executed instruction
system.cpu1.op_class::SimdFloatCmp                  0                       # Class of executed instruction
system.cpu1.op_class::SimdFloatCvt                  0                       # Class of executed instruction
system.cpu1.op_class::SimdFloatDiv                  0                       # Class of executed instruction
system.cpu1.op_class::SimdFloatMisc                 0                       # Class of executed instruction
system.cpu1.op_class::SimdFloatMult                 0                       # Class of executed instruction
system.cpu1.op_class::SimdFloatMultAcc              0                       # Class of executed instruction
system.cpu1.op_class::SimdFloatSqrt                 0                       # Class of executed instruction
system.cpu1.op_class::MemRead                       0                       # Class of executed instruction
system.cpu1.op_class::MemWrite                      0                       # Class of executed instruction
system.cpu1.op_class::FloatMemRead                  0                       # Class of executed instruction
system.cpu1.op_class::FloatMemWrite                 0                       # Class of executed instruction
system.cpu1.op_class::IprAccess                     0                       # Class of executed instruction
system.cpu1.op_class::InstPrefetch                  0                       # Class of executed instruction
system.cpu1.op_class::total                         0                       # Class of executed instruction
system.cpu1.dcache.tags.pwrStateResidencyTicks::UNDEFINED 127915896248000                       # Cumulative time (in ticks) in various power states
system.cpu1.dcache.tags.replacements                0                       # number of replacements
system.cpu1.dcache.tags.tagsinuse                   0                       # Cycle average of tags in use
system.cpu1.dcache.tags.total_refs                  0                       # Total number of references to valid blocks.
system.cpu1.dcache.tags.sampled_refs                0                       # Sample count of references to valid blocks.
system.cpu1.dcache.tags.avg_refs                  nan                       # Average number of references to valid blocks.
system.cpu1.dcache.tags.warmup_cycle                0                       # Cycle when the warmup percentage was hit.
system.cpu1.dcache.tags.tag_accesses                0                       # Number of tag accesses
system.cpu1.dcache.tags.data_accesses               0                       # Number of data accesses
system.cpu1.dcache.pwrStateResidencyTicks::UNDEFINED 127915896248000                       # Cumulative time (in ticks) in various power states
system.cpu1.dcache.blocked_cycles::no_mshrs            0                       # number of cycles access was blocked
system.cpu1.dcache.blocked_cycles::no_targets            0                       # number of cycles access was blocked
system.cpu1.dcache.blocked::no_mshrs                0                       # number of cycles access was blocked
system.cpu1.dcache.blocked::no_targets              0                       # number of cycles access was blocked
system.cpu1.dcache.avg_blocked_cycles::no_mshrs          nan                       # average number of cycles each access was blocked
system.cpu1.dcache.avg_blocked_cycles::no_targets          nan                       # average number of cycles each access was blocked
system.cpu1.dtb_walker_cache.tags.pwrStateResidencyTicks::UNDEFINED 127915896248000                       # Cumulative time (in ticks) in various power states
system.cpu1.dtb_walker_cache.tags.replacements            0                       # number of replacements
system.cpu1.dtb_walker_cache.tags.tagsinuse            0                       # Cycle average of tags in use
system.cpu1.dtb_walker_cache.tags.total_refs            0                       # Total number of references to valid blocks.
system.cpu1.dtb_walker_cache.tags.sampled_refs            0                       # Sample count of references to valid blocks.
system.cpu1.dtb_walker_cache.tags.avg_refs          nan                       # Average number of references to valid blocks.
system.cpu1.dtb_walker_cache.tags.warmup_cycle            0                       # Cycle when the warmup percentage was hit.
system.cpu1.dtb_walker_cache.tags.tag_accesses            0                       # Number of tag accesses
system.cpu1.dtb_walker_cache.tags.data_accesses            0                       # Number of data accesses
system.cpu1.dtb_walker_cache.pwrStateResidencyTicks::UNDEFINED 127915896248000                       # Cumulative time (in ticks) in various power states
system.cpu1.dtb_walker_cache.blocked_cycles::no_mshrs            0                       # number of cycles access was blocked
system.cpu1.dtb_walker_cache.blocked_cycles::no_targets            0                       # number of cycles access was blocked
system.cpu1.dtb_walker_cache.blocked::no_mshrs            0                       # number of cycles access was blocked
system.cpu1.dtb_walker_cache.blocked::no_targets            0                       # number of cycles access was blocked
system.cpu1.dtb_walker_cache.avg_blocked_cycles::no_mshrs          nan                       # average number of cycles each access was blocked
system.cpu1.dtb_walker_cache.avg_blocked_cycles::no_targets          nan                       # average number of cycles each access was blocked
system.cpu1.icache.tags.pwrStateResidencyTicks::UNDEFINED 127915896248000                       # Cumulative time (in ticks) in various power states
system.cpu1.icache.tags.replacements                0                       # number of replacements
system.cpu1.icache.tags.tagsinuse                   0                       # Cycle average of tags in use
system.cpu1.icache.tags.total_refs                  0                       # Total number of references to valid blocks.
system.cpu1.icache.tags.sampled_refs                0                       # Sample count of references to valid blocks.
system.cpu1.icache.tags.avg_refs                  nan                       # Average number of references to valid blocks.
system.cpu1.icache.tags.warmup_cycle                0                       # Cycle when the warmup percentage was hit.
system.cpu1.icache.tags.tag_accesses                0                       # Number of tag accesses
system.cpu1.icache.tags.data_accesses               0                       # Number of data accesses
system.cpu1.icache.pwrStateResidencyTicks::UNDEFINED 127915896248000                       # Cumulative time (in ticks) in various power states
system.cpu1.icache.blocked_cycles::no_mshrs            0                       # number of cycles access was blocked
system.cpu1.icache.blocked_cycles::no_targets            0                       # number of cycles access was blocked
system.cpu1.icache.blocked::no_mshrs                0                       # number of cycles access was blocked
system.cpu1.icache.blocked::no_targets              0                       # number of cycles access was blocked
system.cpu1.icache.avg_blocked_cycles::no_mshrs          nan                       # average number of cycles each access was blocked
system.cpu1.icache.avg_blocked_cycles::no_targets          nan                       # average number of cycles each access was blocked
system.cpu1.itb_walker_cache.tags.pwrStateResidencyTicks::UNDEFINED 127915896248000                       # Cumulative time (in ticks) in various power states
system.cpu1.itb_walker_cache.tags.replacements            0                       # number of replacements
system.cpu1.itb_walker_cache.tags.tagsinuse            0                       # Cycle average of tags in use
system.cpu1.itb_walker_cache.tags.total_refs            0                       # Total number of references to valid blocks.
system.cpu1.itb_walker_cache.tags.sampled_refs            0                       # Sample count of references to valid blocks.
system.cpu1.itb_walker_cache.tags.avg_refs          nan                       # Average number of references to valid blocks.
system.cpu1.itb_walker_cache.tags.warmup_cycle            0                       # Cycle when the warmup percentage was hit.
system.cpu1.itb_walker_cache.tags.tag_accesses            0                       # Number of tag accesses
system.cpu1.itb_walker_cache.tags.data_accesses            0                       # Number of data accesses
system.cpu1.itb_walker_cache.pwrStateResidencyTicks::UNDEFINED 127915896248000                       # Cumulative time (in ticks) in various power states
system.cpu1.itb_walker_cache.blocked_cycles::no_mshrs            0                       # number of cycles access was blocked
system.cpu1.itb_walker_cache.blocked_cycles::no_targets            0                       # number of cycles access was blocked
system.cpu1.itb_walker_cache.blocked::no_mshrs            0                       # number of cycles access was blocked
system.cpu1.itb_walker_cache.blocked::no_targets            0                       # number of cycles access was blocked
system.cpu1.itb_walker_cache.avg_blocked_cycles::no_mshrs          nan                       # average number of cycles each access was blocked
system.cpu1.itb_walker_cache.avg_blocked_cycles::no_targets          nan                       # average number of cycles each access was blocked
system.cpu2.dtb.walker.pwrStateResidencyTicks::UNDEFINED 127915896248000                       # Cumulative time (in ticks) in various power states
system.cpu2.dtb.rdAccesses                          0                       # TLB accesses on read requests
system.cpu2.dtb.wrAccesses                          0                       # TLB accesses on write requests
system.cpu2.dtb.rdMisses                            0                       # TLB misses on read requests
system.cpu2.dtb.wrMisses                            0                       # TLB misses on write requests
system.cpu2.apic_clk_domain.clock                8000                       # Clock period in ticks
system.cpu2.interrupts.pwrStateResidencyTicks::UNDEFINED 127915896248000                       # Cumulative time (in ticks) in various power states
system.cpu2.itb.walker.pwrStateResidencyTicks::UNDEFINED 127915896248000                       # Cumulative time (in ticks) in various power states
system.cpu2.itb.rdAccesses                          0                       # TLB accesses on read requests
system.cpu2.itb.wrAccesses                          0                       # TLB accesses on write requests
system.cpu2.itb.rdMisses                            0                       # TLB misses on read requests
system.cpu2.itb.wrMisses                            0                       # TLB misses on write requests
system.cpu2.pwrStateResidencyTicks::ON   127915896248000                       # Cumulative time (in ticks) in various power states
system.cpu2.numCycles                               0                       # number of cpu cycles simulated
system.cpu2.numWorkItemsStarted                     0                       # number of work items this cpu started
system.cpu2.numWorkItemsCompleted                   0                       # number of work items this cpu completed
system.cpu2.committedInsts                          0                       # Number of instructions committed
system.cpu2.committedOps                            0                       # Number of ops (including micro ops) committed
system.cpu2.num_int_alu_accesses                    0                       # Number of integer alu accesses
system.cpu2.num_fp_alu_accesses                     0                       # Number of float alu accesses
system.cpu2.num_vec_alu_accesses                    0                       # Number of vector alu accesses
system.cpu2.num_func_calls                          0                       # number of times a function call or return occured
system.cpu2.num_conditional_control_insts            0                       # number of instructions that are conditional controls
system.cpu2.num_int_insts                           0                       # number of integer instructions
system.cpu2.num_fp_insts                            0                       # number of float instructions
system.cpu2.num_vec_insts                           0                       # number of vector instructions
system.cpu2.num_int_register_reads                  0                       # number of times the integer registers were read
system.cpu2.num_int_register_writes                 0                       # number of times the integer registers were written
system.cpu2.num_fp_register_reads                   0                       # number of times the floating registers were read
system.cpu2.num_fp_register_writes                  0                       # number of times the floating registers were written
system.cpu2.num_vec_register_reads                  0                       # number of times the vector registers were read
system.cpu2.num_vec_register_writes                 0                       # number of times the vector registers were written
system.cpu2.num_mem_refs                            0                       # number of memory refs
system.cpu2.num_load_insts                          0                       # Number of load instructions
system.cpu2.num_store_insts                         0                       # Number of store instructions
system.cpu2.num_idle_cycles                         0                       # Number of idle cycles
system.cpu2.num_busy_cycles                         0                       # Number of busy cycles
system.cpu2.not_idle_fraction                       0                       # Percentage of non-idle cycles
system.cpu2.idle_fraction                           1                       # Percentage of idle cycles
system.cpu2.op_class::No_OpClass                    0                       # Class of executed instruction
system.cpu2.op_class::IntAlu                        0                       # Class of executed instruction
system.cpu2.op_class::IntMult                       0                       # Class of executed instruction
system.cpu2.op_class::IntDiv                        0                       # Class of executed instruction
system.cpu2.op_class::FloatAdd                      0                       # Class of executed instruction
system.cpu2.op_class::FloatCmp                      0                       # Class of executed instruction
system.cpu2.op_class::FloatCvt                      0                       # Class of executed instruction
system.cpu2.op_class::FloatMult                     0                       # Class of executed instruction
system.cpu2.op_class::FloatMultAcc                  0                       # Class of executed instruction
system.cpu2.op_class::FloatDiv                      0                       # Class of executed instruction
system.cpu2.op_class::FloatMisc                     0                       # Class of executed instruction
system.cpu2.op_class::FloatSqrt                     0                       # Class of executed instruction
system.cpu2.op_class::SimdAdd                       0                       # Class of executed instruction
system.cpu2.op_class::SimdAddAcc                    0                       # Class of executed instruction
system.cpu2.op_class::SimdAlu                       0                       # Class of executed instruction
system.cpu2.op_class::SimdCmp                       0                       # Class of executed instruction
system.cpu2.op_class::SimdCvt                       0                       # Class of executed instruction
system.cpu2.op_class::SimdMisc                      0                       # Class of executed instruction
system.cpu2.op_class::SimdMult                      0                       # Class of executed instruction
system.cpu2.op_class::SimdMultAcc                   0                       # Class of executed instruction
system.cpu2.op_class::SimdShift                     0                       # Class of executed instruction
[...]
system.cpu3.itb_walker_cache.blocked::no_targets            0                       # number of cycles access was blocked
system.cpu3.itb_walker_cache.avg_blocked_cycles::no_mshrs          nan                       # average number of cycles each access was blocked
system.cpu3.itb_walker_cache.avg_blocked_cycles::no_targets          nan                       # average number of cycles each access was blocked
system.l2.tags.pwrStateResidencyTicks::UNDEFINED 127915896248000                       # Cumulative time (in ticks) in various power states
system.l2.tags.replacements                 442326025                       # number of replacements
system.l2.tags.tagsinuse                 32764.396730                       # Cycle average of tags in use
system.l2.tags.total_refs                   838949593                       # Total number of references to valid blocks.
system.l2.tags.sampled_refs                 442358793                       # Sample count of references to valid blocks.
system.l2.tags.avg_refs                      1.896536                       # Average number of references to valid blocks.
system.l2.tags.warmup_cycle               30733357500                       # Cycle when the warmup percentage was hit.
system.l2.tags.occ_blocks::writebacks       22.243747                       # Average occupied blocks per requestor
system.l2.tags.occ_blocks::cpu0.inst         4.931925                       # Average occupied blocks per requestor
system.l2.tags.occ_blocks::cpu0.data     32737.221068                       # Average occupied blocks per requestor
system.l2.tags.occ_percent::writebacks       0.000679                       # Average percentage of cache occupancy
system.l2.tags.occ_percent::cpu0.inst        0.000151                       # Average percentage of cache occupancy
system.l2.tags.occ_percent::cpu0.data        0.999061                       # Average percentage of cache occupancy
system.l2.tags.occ_percent::total            0.999890                       # Average percentage of cache occupancy
system.l2.tags.occ_task_id_blocks::1024         32768                       # Occupied blocks per task id
system.l2.tags.age_task_id_blocks_1024::0          165                       # Occupied blocks per task id
system.l2.tags.age_task_id_blocks_1024::1          522                       # Occupied blocks per task id
system.l2.tags.age_task_id_blocks_1024::2         7892                       # Occupied blocks per task id
system.l2.tags.age_task_id_blocks_1024::3        24094                       # Occupied blocks per task id
system.l2.tags.age_task_id_blocks_1024::4           95                       # Occupied blocks per task id
system.l2.tags.occ_task_id_percent::1024            1                       # Percentage of cache occupancy per task id
system.l2.tags.tag_accesses               10692982513                       # Number of tag accesses
system.l2.tags.data_accesses              10692982513                       # Number of data accesses
system.l2.pwrStateResidencyTicks::UNDEFINED 127915896248000                       # Cumulative time (in ticks) in various power states
system.l2.WritebackDirty_hits::writebacks    355338951                       # number of WritebackDirty hits
system.l2.WritebackDirty_hits::total        355338951                       # number of WritebackDirty hits
system.l2.WritebackClean_hits::writebacks      7585317                       # number of WritebackClean hits
system.l2.WritebackClean_hits::total          7585317                       # number of WritebackClean hits
system.l2.ReadExReq_hits::cpu0.data          24204901                       # number of ReadExReq hits
system.l2.ReadExReq_hits::total              24204901                       # number of ReadExReq hits
system.l2.ReadCleanReq_hits::cpu0.inst        7581539                       # number of ReadCleanReq hits
system.l2.ReadCleanReq_hits::total            7581539                       # number of ReadCleanReq hits
system.l2.ReadSharedReq_hits::cpu0.data     166567893                       # number of ReadSharedReq hits
system.l2.ReadSharedReq_hits::total         166567893                       # number of ReadSharedReq hits
system.l2.demand_hits::cpu0.inst              7581539                       # number of demand (read+write) hits
system.l2.demand_hits::cpu0.data            190772794                       # number of demand (read+write) hits
system.l2.demand_hits::total                198354333                       # number of demand (read+write) hits
system.l2.overall_hits::cpu0.inst             7581539                       # number of overall hits
system.l2.overall_hits::cpu0.data           190772794                       # number of overall hits
system.l2.overall_hits::total               198354333                       # number of overall hits
system.l2.ReadExReq_misses::cpu0.data        71283734                       # number of ReadExReq misses
system.l2.ReadExReq_misses::total            71283734                       # number of ReadExReq misses
system.l2.ReadCleanReq_misses::cpu0.inst         4290                       # number of ReadCleanReq misses
system.l2.ReadCleanReq_misses::total             4290                       # number of ReadCleanReq misses
system.l2.ReadSharedReq_misses::cpu0.data    371022394                       # number of ReadSharedReq misses
system.l2.ReadSharedReq_misses::total       371022394                       # number of ReadSharedReq misses
system.l2.demand_misses::cpu0.inst               4290                       # number of demand (read+write) misses
system.l2.demand_misses::cpu0.data          442306128                       # number of demand (read+write) misses
system.l2.demand_misses::total              442310418                       # number of demand (read+write) misses
system.l2.overall_misses::cpu0.inst              4290                       # number of overall misses
system.l2.overall_misses::cpu0.data         442306128                       # number of overall misses
system.l2.overall_misses::total             442310418                       # number of overall misses
system.l2.WritebackDirty_accesses::writebacks    355338951                       # number of WritebackDirty accesses(hits+misses)
system.l2.WritebackDirty_accesses::total    355338951                       # number of WritebackDirty accesses(hits+misses)
system.l2.WritebackClean_accesses::writebacks      7585317                       # number of WritebackClean accesses(hits+misses)
system.l2.WritebackClean_accesses::total      7585317                       # number of WritebackClean accesses(hits+misses)
system.l2.ReadExReq_accesses::cpu0.data      95488635                       # number of ReadExReq accesses(hits+misses)
system.l2.ReadExReq_accesses::total          95488635                       # number of ReadExReq accesses(hits+misses)
system.l2.ReadCleanReq_accesses::cpu0.inst      7585829                       # number of ReadCleanReq accesses(hits+misses)
system.l2.ReadCleanReq_accesses::total        7585829                       # number of ReadCleanReq accesses(hits+misses)
system.l2.ReadSharedReq_accesses::cpu0.data    537590287                       # number of ReadSharedReq accesses(hits+misses)
system.l2.ReadSharedReq_accesses::total     537590287                       # number of ReadSharedReq accesses(hits+misses)
system.l2.demand_accesses::cpu0.inst          7585829                       # number of demand (read+write) accesses
system.l2.demand_accesses::cpu0.data        633078922                       # number of demand (read+write) accesses
system.l2.demand_accesses::total            640664751                       # number of demand (read+write) accesses
system.l2.overall_accesses::cpu0.inst         7585829                       # number of overall (read+write) accesses
system.l2.overall_accesses::cpu0.data       633078922                       # number of overall (read+write) accesses
system.l2.overall_accesses::total           640664751                       # number of overall (read+write) accesses
system.l2.ReadExReq_miss_rate::cpu0.data     0.746515                       # miss rate for ReadExReq accesses
system.l2.ReadExReq_miss_rate::total         0.746515                       # miss rate for ReadExReq accesses
system.l2.ReadCleanReq_miss_rate::cpu0.inst     0.000566                       # miss rate for ReadCleanReq accesses
system.l2.ReadCleanReq_miss_rate::total      0.000566                       # miss rate for ReadCleanReq accesses
system.l2.ReadSharedReq_miss_rate::cpu0.data     0.690158                       # miss rate for ReadSharedReq accesses
system.l2.ReadSharedReq_miss_rate::total     0.690158                       # miss rate for ReadSharedReq accesses
system.l2.demand_miss_rate::cpu0.inst        0.000566                       # miss rate for demand accesses
system.l2.demand_miss_rate::cpu0.data        0.698659                       # miss rate for demand accesses
system.l2.demand_miss_rate::total            0.690393                       # miss rate for demand accesses
system.l2.overall_miss_rate::cpu0.inst       0.000566                       # miss rate for overall accesses
system.l2.overall_miss_rate::cpu0.data       0.698659                       # miss rate for overall accesses
system.l2.overall_miss_rate::total           0.690393                       # miss rate for overall accesses
system.l2.blocked_cycles::no_mshrs                  0                       # number of cycles access was blocked
system.l2.blocked_cycles::no_targets                0                       # number of cycles access was blocked
system.l2.blocked::no_mshrs                         0                       # number of cycles access was blocked
system.l2.blocked::no_targets                       0                       # number of cycles access was blocked
system.l2.avg_blocked_cycles::no_mshrs            nan                       # average number of cycles each access was blocked
system.l2.avg_blocked_cycles::no_targets          nan                       # average number of cycles each access was blocked
system.l2.writebacks::writebacks            228458385                       # number of writebacks
system.l2.writebacks::total                 228458385                       # number of writebacks
system.membus.snoop_filter.tot_requests     884587832                       # Total number of requests made to the snoop filter.
system.membus.snoop_filter.hit_single_requests    442277414                       # Number of requests hitting in the snoop filter with a single holder of the requested data.
system.membus.snoop_filter.hit_multi_requests            0                       # Number of requests hitting in the snoop filter with multiple (>1) holders of the requested data.
system.membus.snoop_filter.tot_snoops               0                       # Total number of snoops made to the snoop filter.
system.membus.snoop_filter.hit_single_snoops            0                       # Number of snoops hitting in the snoop filter with a single holder of the requested data.
system.membus.snoop_filter.hit_multi_snoops            0                       # Number of snoops hitting in the snoop filter with multiple (>1) holders of the requested data.
system.membus.pwrStateResidencyTicks::UNDEFINED 127915896248000                       # Cumulative time (in ticks) in various power states
system.membus.trans_dist::ReadResp          371026684                       # Transaction distribution
system.membus.trans_dist::WritebackDirty    228458385                       # Transaction distribution
system.membus.trans_dist::CleanEvict        213819029                       # Transaction distribution
system.membus.trans_dist::ReadExReq          71283734                       # Transaction distribution
system.membus.trans_dist::ReadExResp         71283734                       # Transaction distribution
system.membus.trans_dist::ReadSharedReq     371026684                       # Transaction distribution
system.membus.pkt_count_system.l2.mem_side::system.mem_ctrls.port   1326898250                       # Packet count per connected master and slave (bytes)
system.membus.pkt_count_system.l2.mem_side::total   1326898250                       # Packet count per connected master and slave (bytes)
system.membus.pkt_count::total             1326898250                       # Packet count per connected master and slave (bytes)
system.membus.pkt_size_system.l2.mem_side::system.mem_ctrls.port  42929203392                       # Cumulative packet size per connected master and slave (bytes)
system.membus.pkt_size_system.l2.mem_side::total  42929203392                       # Cumulative packet size per connected master and slave (bytes)
system.membus.pkt_size::total             42929203392                       # Cumulative packet size per connected master and slave (bytes)
system.membus.snoops                                0                       # Total snoops (count)
system.membus.snoopTraffic                          0                       # Total snoop traffic (bytes)
system.membus.snoop_fanout::samples         884587832                       # Request fanout histogram
system.membus.snoop_fanout::mean                    0                       # Request fanout histogram
system.membus.snoop_fanout::stdev                   0                       # Request fanout histogram
system.membus.snoop_fanout::underflows              0      0.00%      0.00% # Request fanout histogram
system.membus.snoop_fanout::0               884587832    100.00%    100.00% # Request fanout histogram
system.membus.snoop_fanout::1                       0      0.00%    100.00% # Request fanout histogram
system.membus.snoop_fanout::overflows               0      0.00%    100.00% # Request fanout histogram
system.membus.snoop_fanout::min_value               0                       # Request fanout histogram
system.membus.snoop_fanout::max_value               0                       # Request fanout histogram
system.membus.snoop_fanout::total           884587832                       # Request fanout histogram
system.tol2bus.snoop_filter.tot_requests   1281327966                       # Total number of requests made to the snoop filter.
system.tol2bus.snoop_filter.hit_single_requests    640663215                       # Number of requests hitting in the snoop filter with a single holder of the requested data.
system.tol2bus.snoop_filter.hit_multi_requests            1                       # Number of requests hitting in the snoop filter with multiple (>1) holders of the requested data.
system.tol2bus.snoop_filter.tot_snoops          68190                       # Total number of snoops made to the snoop filter.
system.tol2bus.snoop_filter.hit_single_snoops        68190                       # Number of snoops hitting in the snoop filter with a single holder of the requested data.
system.tol2bus.snoop_filter.hit_multi_snoops            0                       # Number of snoops hitting in the snoop filter with multiple (>1) holders of the requested data.
system.tol2bus.pwrStateResidencyTicks::UNDEFINED 127915896248000                       # Cumulative time (in ticks) in various power states
system.tol2bus.trans_dist::ReadResp         545176116                       # Transaction distribution
system.tol2bus.trans_dist::WritebackDirty    355338951                       # Transaction distribution
system.tol2bus.trans_dist::WritebackClean      7585317                       # Transaction distribution
system.tol2bus.trans_dist::CleanEvict       277738947                       # Transaction distribution
system.tol2bus.trans_dist::ReadExReq         95488635                       # Transaction distribution
system.tol2bus.trans_dist::ReadExResp        95488635                       # Transaction distribution
system.tol2bus.trans_dist::ReadCleanReq       7585829                       # Transaction distribution
system.tol2bus.trans_dist::ReadSharedReq    537590287                       # Transaction distribution
system.tol2bus.pkt_count_system.cpu0.icache.mem_side::system.l2.cpu_side     22756975                       # Packet count per connected master and slave (bytes)
system.tol2bus.pkt_count_system.cpu0.dcache.mem_side::system.l2.cpu_side   1899235742                       # Packet count per connected master and slave (bytes)
system.tol2bus.pkt_count::total            1921992717                       # Packet count per connected master and slave (bytes)
system.tol2bus.pkt_size_system.cpu0.icache.mem_side::system.l2.cpu_side    970953344                       # Cumulative packet size per connected master and slave (bytes)
system.tol2bus.pkt_size_system.cpu0.dcache.mem_side::system.l2.cpu_side  63258743872                       # Cumulative packet size per connected master and slave (bytes)
system.tol2bus.pkt_size::total            64229697216                       # Cumulative packet size per connected master and slave (bytes)
system.tol2bus.snoops                       442326025                       # Total snoops (count)
system.tol2bus.snoopTraffic               14621336640                       # Total snoop traffic (bytes)
system.tol2bus.snoop_fanout::samples       1723653991                       # Request fanout histogram
system.tol2bus.snoop_fanout::mean            0.000040                       # Request fanout histogram
system.tol2bus.snoop_fanout::stdev           0.006290                       # Request fanout histogram
system.tol2bus.snoop_fanout::underflows             0      0.00%      0.00% # Request fanout histogram
system.tol2bus.snoop_fanout::0             1723585799    100.00%    100.00% # Request fanout histogram
system.tol2bus.snoop_fanout::1                  68192      0.00%    100.00% # Request fanout histogram
system.tol2bus.snoop_fanout::2                      0      0.00%    100.00% # Request fanout histogram
system.tol2bus.snoop_fanout::3                      0      0.00%    100.00% # Request fanout histogram
system.tol2bus.snoop_fanout::4                      0      0.00%    100.00% # Request fanout histogram
system.tol2bus.snoop_fanout::5                      0      0.00%    100.00% # Request fanout histogram
system.tol2bus.snoop_fanout::6                      0      0.00%    100.00% # Request fanout histogram
system.tol2bus.snoop_fanout::7                      0      0.00%    100.00% # Request fanout histogram
system.tol2bus.snoop_fanout::8                      0      0.00%    100.00% # Request fanout histogram
system.tol2bus.snoop_fanout::9                      0      0.00%    100.00% # Request fanout histogram
system.tol2bus.snoop_fanout::10                     0      0.00%    100.00% # Request fanout histogram
system.tol2bus.snoop_fanout::11                     0      0.00%    100.00% # Request fanout histogram
system.tol2bus.snoop_fanout::12                     0      0.00%    100.00% # Request fanout histogram
system.tol2bus.snoop_fanout::13                     0      0.00%    100.00% # Request fanout histogram
system.tol2bus.snoop_fanout::14                     0      0.00%    100.00% # Request fanout histogram
system.tol2bus.snoop_fanout::15                     0      0.00%    100.00% # Request fanout histogram
system.tol2bus.snoop_fanout::16                     0      0.00%    100.00% # Request fanout histogram
system.tol2bus.snoop_fanout::overflows              0      0.00%    100.00% # Request fanout histogram
system.tol2bus.snoop_fanout::min_value              0                       # Request fanout histogram
system.tol2bus.snoop_fanout::max_value              1                       # Request fanout histogram
system.tol2bus.snoop_fanout::total         1723653991                       # Request fanout histogram

---------- End Simulation Statistics   ----------
