
---------- Begin Simulation Statistics ----------
sim_seconds                                  0.439681                       # Number of seconds simulated
sim_ticks                                439681380500                       # Number of ticks simulated
final_tick                               439681380500                       # Number of ticks from beginning of simulation (restored from checkpoints and never reset)
sim_freq                                 1000000000000                       # Frequency of simulated ticks
host_inst_rate                                 632715                       # Simulator instruction rate (inst/s)
host_op_rate                                  1010438                       # Simulator op (including micro ops) rate (op/s)
host_tick_rate                              555859707                       # Simulator tick rate (ticks/s)
host_mem_usage                                 863156                       # Number of bytes of host memory used
host_seconds                                   790.99                       # Real time elapsed on the host
sim_insts                                   500473209                       # Number of instructions simulated
sim_ops                                     799250009                       # Number of ops (including micro ops) simulated
system.voltage_domain.voltage                       1                       # Voltage in Volts
system.clk_domain.clock                          1000                       # Clock period in ticks
system.mem_ctrls.pwrStateResidencyTicks::UNDEFINED 439681380500                       # Cumulative time (in ticks) in various power states
system.mem_ctrls.bytes_read::cpu.inst           81408                       # Number of bytes read from this memory
system.mem_ctrls.bytes_read::cpu.data      1342659776                       # Number of bytes read from this memory
system.mem_ctrls.bytes_read::total         1342741184                       # Number of bytes read from this memory
system.mem_ctrls.bytes_inst_read::cpu.inst        81408                       # Number of instructions bytes read from this memory
system.mem_ctrls.bytes_inst_read::total         81408                       # Number of instructions bytes read from this memory
system.mem_ctrls.bytes_written::writebacks   1340206208                       # Number of bytes written to this memory
system.mem_ctrls.bytes_written::total      1340206208                       # Number of bytes written to this memory
system.mem_ctrls.num_reads::cpu.inst             1272                       # Number of read requests responded to by this memory
system.mem_ctrls.num_reads::cpu.data         20979059                       # Number of read requests responded to by this memory
system.mem_ctrls.num_reads::total            20980331                       # Number of read requests responded to by this memory
system.mem_ctrls.num_writes::writebacks      20940722                       # Number of write requests responded to by this memory
system.mem_ctrls.num_writes::total           20940722                       # Number of write requests responded to by this memory
system.mem_ctrls.bw_read::cpu.inst             185152                       # Total read bandwidth from this memory (bytes/s)
system.mem_ctrls.bw_read::cpu.data         3053710790                       # Total read bandwidth from this memory (bytes/s)
system.mem_ctrls.bw_read::total            3053895943                       # Total read bandwidth from this memory (bytes/s)
system.mem_ctrls.bw_inst_read::cpu.inst        185152                       # Instruction read bandwidth from this memory (bytes/s)
system.mem_ctrls.bw_inst_read::total           185152                       # Instruction read bandwidth from this memory (bytes/s)
system.mem_ctrls.bw_write::writebacks      3048130459                       # Write bandwidth from this memory (bytes/s)
system.mem_ctrls.bw_write::total           3048130459                       # Write bandwidth from this memory (bytes/s)
system.mem_ctrls.bw_total::writebacks      3048130459                       # Total bandwidth to/from this memory (bytes/s)
system.mem_ctrls.bw_total::cpu.inst            185152                       # Total bandwidth to/from this memory (bytes/s)
system.mem_ctrls.bw_total::cpu.data        3053710790                       # Total bandwidth to/from this memory (bytes/s)
system.mem_ctrls.bw_total::total           6102026401                       # Total bandwidth to/from this memory (bytes/s)
system.mem_ctrls.readReqs                           0                       # Number of read requests accepted
system.mem_ctrls.writeReqs                          0                       # Number of write requests accepted
system.mem_ctrls.readBursts                         0                       # Number of DRAM read bursts, including those serviced by the write queue
system.mem_ctrls.writeBursts                        0                       # Number of DRAM write bursts, including those merged in the write queue
system.mem_ctrls.bytesReadDRAM                      0                       # Total number of bytes read from DRAM
system.mem_ctrls.bytesReadWrQ                       0                       # Total number of bytes read from write queue
system.mem_ctrls.bytesWritten                       0                       # Total number of bytes written to DRAM
system.mem_ctrls.bytesReadSys                       0                       # Total read bytes from the system interface side
system.mem_ctrls.bytesWrittenSys                    0                       # Total written bytes from the system interface side
system.mem_ctrls.servicedByWrQ                      0                       # Number of DRAM read bursts serviced by the write queue
system.mem_ctrls.mergedWrBursts                     0                       # Number of DRAM write bursts merged with an existing one
system.mem_ctrls.neitherReadNorWriteReqs            0                       # Number of requests that are neither read nor write
system.mem_ctrls.perBankRdBursts::0                 0                       # Per bank write bursts
system.mem_ctrls.perBankRdBursts::1                 0                       # Per bank write bursts
system.mem_ctrls.perBankRdBursts::2                 0                       # Per bank write bursts
system.mem_ctrls.perBankRdBursts::3                 0                       # Per bank write bursts
system.mem_ctrls.perBankRdBursts::4                 0                       # Per bank write bursts
system.mem_ctrls.perBankRdBursts::5                 0                       # Per bank write bursts
system.mem_ctrls.perBankRdBursts::6                 0                       # Per bank write bursts
system.mem_ctrls.perBankRdBursts::7                 0                       # Per bank write bursts
system.mem_ctrls.perBankRdBursts::8                 0                       # Per bank write bursts
system.mem_ctrls.perBankRdBursts::9                 0                       # Per bank write bursts
system.mem_ctrls.perBankRdBursts::10                0                       # Per bank write bursts
system.mem_ctrls.perBankRdBursts::11                0                       # Per bank write bursts
system.mem_ctrls.perBankRdBursts::12                0                       # Per bank write bursts
system.mem_ctrls.perBankRdBursts::13                0                       # Per bank write bursts
system.mem_ctrls.perBankRdBursts::14                0                       # Per bank write bursts
system.mem_ctrls.perBankRdBursts::15                0                       # Per bank write bursts
system.mem_ctrls.perBankWrBursts::0                 0                       # Per bank write bursts
system.mem_ctrls.perBankWrBursts::1                 0                       # Per bank write bursts
system.mem_ctrls.perBankWrBursts::2                 0                       # Per bank write bursts
system.mem_ctrls.perBankWrBursts::3                 0                       # Per bank write bursts
system.mem_ctrls.perBankWrBursts::4                 0                       # Per bank write bursts
system.mem_ctrls.perBankWrBursts::5                 0                       # Per bank write bursts
system.mem_ctrls.perBankWrBursts::6                 0                       # Per bank write bursts
system.mem_ctrls.perBankWrBursts::7                 0                       # Per bank write bursts
system.mem_ctrls.perBankWrBursts::8                 0                       # Per bank write bursts
system.mem_ctrls.perBankWrBursts::9                 0                       # Per bank write bursts
system.mem_ctrls.perBankWrBursts::10                0                       # Per bank write bursts
system.mem_ctrls.perBankWrBursts::11                0                       # Per bank write bursts
system.mem_ctrls.perBankWrBursts::12                0                       # Per bank write bursts
system.mem_ctrls.perBankWrBursts::13                0                       # Per bank write bursts
system.mem_ctrls.perBankWrBursts::14                0                       # Per bank write bursts
system.mem_ctrls.perBankWrBursts::15                0                       # Per bank write bursts
system.mem_ctrls.numRdRetry                         0                       # Number of times read queue was full causing retry
system.mem_ctrls.numWrRetry                         0                       # Number of times write queue was full causing retry
system.mem_ctrls.totGap                             0                       # Total gap between requests
system.mem_ctrls.readPktSize::0                     0                       # Read request sizes (log2)
system.mem_ctrls.readPktSize::1                     0                       # Read request sizes (log2)
system.mem_ctrls.readPktSize::2                     0                       # Read request sizes (log2)
system.mem_ctrls.readPktSize::3                     0                       # Read request sizes (log2)
system.mem_ctrls.readPktSize::4                     0                       # Read request sizes (log2)
system.mem_ctrls.readPktSize::5                     0                       # Read request sizes (log2)
system.mem_ctrls.readPktSize::6                     0                       # Read request sizes (log2)
system.mem_ctrls.writePktSize::0                    0                       # Write request sizes (log2)
system.mem_ctrls.writePktSize::1                    0                       # Write request sizes (log2)
system.mem_ctrls.writePktSize::2                    0                       # Write request sizes (log2)
system.mem_ctrls.writePktSize::3                    0                       # Write request sizes (log2)
system.mem_ctrls.writePktSize::4                    0                       # Write request sizes (log2)
system.mem_ctrls.writePktSize::5                    0                       # Write request sizes (log2)
system.mem_ctrls.writePktSize::6                    0                       # Write request sizes (log2)
system.mem_ctrls.rdQLenPdf::0                       0                       # What read queue length does an incoming req see
system.mem_ctrls.rdQLenPdf::1                       0                       # What read queue length does an incoming req see
system.mem_ctrls.rdQLenPdf::2                       0                       # What read queue length does an incoming req see
system.mem_ctrls.rdQLenPdf::3                       0                       # What read queue length does an incoming req see
system.mem_ctrls.rdQLenPdf::4                       0                       # What read queue length does an incoming req see
system.mem_ctrls.rdQLenPdf::5                       0                       # What read queue length does an incoming req see
system.mem_ctrls.rdQLenPdf::6                       0                       # What read queue length does an incoming req see
system.mem_ctrls.rdQLenPdf::7                       0                       # What read queue length does an incoming req see
system.mem_ctrls.rdQLenPdf::8                       0                       # What read queue length does an incoming req see
system.mem_ctrls.rdQLenPdf::9                       0                       # What read queue length does an incoming req see
system.mem_ctrls.rdQLenPdf::10                      0                       # What read queue length does an incoming req see
system.mem_ctrls.rdQLenPdf::11                      0                       # What read queue length does an incoming req see
system.mem_ctrls.rdQLenPdf::12                      0                       # What read queue length does an incoming req see
system.mem_ctrls.rdQLenPdf::13                      0                       # What read queue length does an incoming req see
system.mem_ctrls.rdQLenPdf::14                      0                       # What read queue length does an incoming req see
system.mem_ctrls.rdQLenPdf::15                      0                       # What read queue length does an incoming req see
system.mem_ctrls.rdQLenPdf::16                      0                       # What read queue length does an incoming req see
system.mem_ctrls.rdQLenPdf::17                      0                       # What read queue length does an incoming req see
system.mem_ctrls.rdQLenPdf::18                      0                       # What read queue length does an incoming req see
system.mem_ctrls.rdQLenPdf::19                      0                       # What read queue length does an incoming req see
system.mem_ctrls.rdQLenPdf::20                      0                       # What read queue length does an incoming req see
system.mem_ctrls.rdQLenPdf::21                      0                       # What read queue length does an incoming req see
system.mem_ctrls.rdQLenPdf::22                      0                       # What read queue length does an incoming req see
system.mem_ctrls.rdQLenPdf::23                      0                       # What read queue length does an incoming req see
system.mem_ctrls.rdQLenPdf::24                      0                       # What read queue length does an incoming req see
system.mem_ctrls.rdQLenPdf::25                      0                       # What read queue length does an incoming req see
system.mem_ctrls.rdQLenPdf::26                      0                       # What read queue length does an incoming req see
system.mem_ctrls.rdQLenPdf::27                      0                       # What read queue length does an incoming req see
system.mem_ctrls.rdQLenPdf::28                      0                       # What read queue length does an incoming req see
system.mem_ctrls.rdQLenPdf::29                      0                       # What read queue length does an incoming req see
system.mem_ctrls.rdQLenPdf::30                      0                       # What read queue length does an incoming req see
system.mem_ctrls.rdQLenPdf::31                      0                       # What read queue length does an incoming req see
system.mem_ctrls.wrQLenPdf::0                       0                       # What write queue length does an incoming req see
system.mem_ctrls.wrQLenPdf::1                       0                       # What write queue length does an incoming req see
system.mem_ctrls.wrQLenPdf::2                       0                       # What write queue length does an incoming req see
system.mem_ctrls.wrQLenPdf::3                       0                       # What write queue length does an incoming req see
system.mem_ctrls.wrQLenPdf::4                       0                       # What write queue length does an incoming req see
system.mem_ctrls.wrQLenPdf::5                       0                       # What write queue length does an incoming req see
system.mem_ctrls.wrQLenPdf::6                       0                       # What write queue length does an incoming req see
system.mem_ctrls.wrQLenPdf::7                       0                       # What write queue length does an incoming req see
system.mem_ctrls.wrQLenPdf::8                       0                       # What write queue length does an incoming req see
system.mem_ctrls.wrQLenPdf::9                       0                       # What write queue length does an incoming req see
system.mem_ctrls.wrQLenPdf::10                      0                       # What write queue length does an incoming req see
system.mem_ctrls.wrQLenPdf::11                      0                       # What write queue length does an incoming req see
system.mem_ctrls.wrQLenPdf::12                      0                       # What write queue length does an incoming req see
system.mem_ctrls.wrQLenPdf::13                      0                       # What write queue length does an incoming req see
system.mem_ctrls.wrQLenPdf::14                      0                       # What write queue length does an incoming req see
system.mem_ctrls.wrQLenPdf::15                      0                       # What write queue length does an incoming req see
system.mem_ctrls.wrQLenPdf::16                      0                       # What write queue length does an incoming req see
system.mem_ctrls.wrQLenPdf::17                      0                       # What write queue length does an incoming req see
system.mem_ctrls.wrQLenPdf::18                      0                       # What write queue length does an incoming req see
system.mem_ctrls.wrQLenPdf::19                      0                       # What write queue length does an incoming req see
system.mem_ctrls.wrQLenPdf::20                      0                       # What write queue length does an incoming req see
system.mem_ctrls.wrQLenPdf::21                      0                       # What write queue length does an incoming req see
system.mem_ctrls.wrQLenPdf::22                      0                       # What write queue length does an incoming req see
system.mem_ctrls.wrQLenPdf::23                      0                       # What write queue length does an incoming req see
system.mem_ctrls.wrQLenPdf::24                      0                       # What write queue length does an incoming req see
system.mem_ctrls.wrQLenPdf::25                      0                       # What write queue length does an incoming req see
system.mem_ctrls.wrQLenPdf::26                      0                       # What write queue length does an incoming req see
system.mem_ctrls.wrQLenPdf::27                      0                       # What write queue length does an incoming req see
system.mem_ctrls.wrQLenPdf::28                      0                       # What write queue length does an incoming req see
system.mem_ctrls.wrQLenPdf::29                      0                       # What write queue length does an incoming req see
system.mem_ctrls.wrQLenPdf::30                      0                       # What write queue length does an incoming req see
system.mem_ctrls.wrQLenPdf::31                      0                       # What write queue length does an incoming req see
system.mem_ctrls.wrQLenPdf::32                      0                       # What write queue length does an incoming req see
system.mem_ctrls.wrQLenPdf::33                      0                       # What write queue length does an incoming req see
system.mem_ctrls.wrQLenPdf::34                      0                       # What write queue length does an incoming req see
system.mem_ctrls.wrQLenPdf::35                      0                       # What write queue length does an incoming req see
system.mem_ctrls.wrQLenPdf::36                      0                       # What write queue length does an incoming req see
system.mem_ctrls.wrQLenPdf::37                      0                       # What write queue length does an incoming req see
system.mem_ctrls.wrQLenPdf::38                      0                       # What write queue length does an incoming req see
system.mem_ctrls.wrQLenPdf::39                      0                       # What write queue length does an incoming req see
system.mem_ctrls.wrQLenPdf::40                      0                       # What write queue length does an incoming req see
system.mem_ctrls.wrQLenPdf::41                      0                       # What write queue length does an incoming req see
system.mem_ctrls.wrQLenPdf::42                      0                       # What write queue length does an incoming req see
system.mem_ctrls.wrQLenPdf::43                      0                       # What write queue length does an incoming req see
system.mem_ctrls.wrQLenPdf::44                      0                       # What write queue length does an incoming req see
system.mem_ctrls.wrQLenPdf::45                      0                       # What write queue length does an incoming req see
system.mem_ctrls.wrQLenPdf::46                      0                       # What write queue length does an incoming req see
system.mem_ctrls.wrQLenPdf::47                      0                       # What write queue length does an incoming req see
system.mem_ctrls.wrQLenPdf::48                      0                       # What write queue length does an incoming req see
system.mem_ctrls.wrQLenPdf::49                      0                       # What write queue length does an incoming req see
system.mem_ctrls.wrQLenPdf::50                      0                       # What write queue length does an incoming req see
system.mem_ctrls.wrQLenPdf::51                      0                       # What write queue length does an incoming req see
system.mem_ctrls.wrQLenPdf::52                      0                       # What write queue length does an incoming req see
system.mem_ctrls.wrQLenPdf::53                      0                       # What write queue length does an incoming req see
system.mem_ctrls.wrQLenPdf::54                      0                       # What write queue length does an incoming req see
system.mem_ctrls.wrQLenPdf::55                      0                       # What write queue length does an incoming req see
system.mem_ctrls.wrQLenPdf::56                      0                       # What write queue length does an incoming req see
system.mem_ctrls.wrQLenPdf::57                      0                       # What write queue length does an incoming req see
system.mem_ctrls.wrQLenPdf::58                      0                       # What write queue length does an incoming req see
system.mem_ctrls.wrQLenPdf::59                      0                       # What write queue length does an incoming req see
system.mem_ctrls.wrQLenPdf::60                      0                       # What write queue length does an incoming req see
system.mem_ctrls.wrQLenPdf::61                      0                       # What write queue length does an incoming req see
system.mem_ctrls.wrQLenPdf::62                      0                       # What write queue length does an incoming req see
system.mem_ctrls.wrQLenPdf::63                      0                       # What write queue length does an incoming req see
system.mem_ctrls.totQLat                            0                       # Total ticks spent queuing
system.mem_ctrls.totMemAccLat                       0                       # Total ticks spent from burst creation until serviced by the DRAM
system.mem_ctrls.totBusLat                          0                       # Total ticks spent in databus transfers
system.mem_ctrls.avgQLat                          nan                       # Average queueing delay per DRAM burst
system.mem_ctrls.avgBusLat                        nan                       # Average bus latency per DRAM burst
system.mem_ctrls.avgMemAccLat                     nan                       # Average memory access latency per DRAM burst
system.mem_ctrls.avgRdBW                         0.00                       # Average DRAM read bandwidth in MiByte/s
system.mem_ctrls.avgWrBW                         0.00                       # Average achieved write bandwidth in MiByte/s
system.mem_ctrls.avgRdBWSys                      0.00                       # Average system read bandwidth in MiByte/s
system.mem_ctrls.avgWrBWSys                      0.00                       # Average system write bandwidth in MiByte/s
system.mem_ctrls.peakBW                      12800.00                       # Theoretical peak bandwidth in MiByte/s
system.mem_ctrls.busUtil                         0.00                       # Data bus utilization in percentage
system.mem_ctrls.busUtilRead                     0.00                       # Data bus utilization in percentage for reads
system.mem_ctrls.busUtilWrite                    0.00                       # Data bus utilization in percentage for writes
system.mem_ctrls.avgRdQLen                       0.00                       # Average read queue length when enqueuing
system.mem_ctrls.avgWrQLen                       0.00                       # Average write queue length when enqueuing
system.mem_ctrls.readRowHits                        0                       # Number of row buffer hits during reads
system.mem_ctrls.writeRowHits                       0                       # Number of row buffer hits during writes
system.mem_ctrls.readRowHitRate                   nan                       # Row buffer hit rate for reads
system.mem_ctrls.writeRowHitRate                  nan                       # Row buffer hit rate for writes
system.mem_ctrls.avgGap                           nan                       # Average gap between requests
system.mem_ctrls.pageHitRate                      nan                       # Row buffer hit rate, read and write combined
system.mem_ctrls_0.actEnergy                        0                       # Energy for activate commands per rank (pJ)
system.mem_ctrls_0.preEnergy                        0                       # Energy for precharge commands per rank (pJ)
system.mem_ctrls_0.readEnergy                       0                       # Energy for read commands per rank (pJ)
system.mem_ctrls_0.writeEnergy                      0                       # Energy for write commands per rank (pJ)
system.mem_ctrls_0.refreshEnergy                    0                       # Energy for refresh commands per rank (pJ)
system.mem_ctrls_0.actBackEnergy                    0                       # Energy for active background per rank (pJ)
system.mem_ctrls_0.preBackEnergy         168837650400                       # Energy for precharge background per rank (pJ)
system.mem_ctrls_0.actPowerDownEnergy               0                       # Energy for active power-down per rank (pJ)
system.mem_ctrls_0.prePowerDownEnergy               0                       # Energy for precharge power-down per rank (pJ)
system.mem_ctrls_0.selfRefreshEnergy                0                       # Energy for self refresh per rank (pJ)
system.mem_ctrls_0.totalEnergy           168837650400                       # Total energy per rank (pJ)
system.mem_ctrls_0.averagePower                   384                       # Core power per rank (mW)
system.mem_ctrls_0.totalIdleTime                    0                       # Total Idle time Per DRAM Rank
system.mem_ctrls_0.memoryStateTime::IDLE 439681380500                       # Time in different power states
system.mem_ctrls_0.memoryStateTime::REF             0                       # Time in different power states
system.mem_ctrls_0.memoryStateTime::SREF            0                       # Time in different power states
system.mem_ctrls_0.memoryStateTime::PRE_PDN            0                       # Time in different power states
system.mem_ctrls_0.memoryStateTime::ACT             0                       # Time in different power states
system.mem_ctrls_0.memoryStateTime::ACT_PDN            0                       # Time in different power states
system.mem_ctrls_1.actEnergy                        0                       # Energy for activate commands per rank (pJ)
system.mem_ctrls_1.preEnergy                        0                       # Energy for precharge commands per rank (pJ)
system.mem_ctrls_1.readEnergy                       0                       # Energy for read commands per rank (pJ)
system.mem_ctrls_1.writeEnergy                      0                       # Energy for write commands per rank (pJ)
system.mem_ctrls_1.refreshEnergy                    0                       # Energy for refresh commands per rank (pJ)
system.mem_ctrls_1.actBackEnergy                    0                       # Energy for active background per rank (pJ)
system.mem_ctrls_1.preBackEnergy         168837650400                       # Energy for precharge background per rank (pJ)
system.mem_ctrls_1.actPowerDownEnergy               0                       # Energy for active power-down per rank (pJ)
system.mem_ctrls_1.prePowerDownEnergy               0                       # Energy for precharge power-down per rank (pJ)
system.mem_ctrls_1.selfRefreshEnergy                0                       # Energy for self refresh per rank (pJ)
system.mem_ctrls_1.totalEnergy           168837650400                       # Total energy per rank (pJ)
system.mem_ctrls_1.averagePower                   384                       # Core power per rank (mW)
system.mem_ctrls_1.totalIdleTime                    0                       # Total Idle time Per DRAM Rank
system.mem_ctrls_1.memoryStateTime::IDLE 439681380500                       # Time in different power states
system.mem_ctrls_1.memoryStateTime::REF             0                       # Time in different power states
system.mem_ctrls_1.memoryStateTime::SREF            0                       # Time in different power states
system.mem_ctrls_1.memoryStateTime::PRE_PDN            0                       # Time in different power states
system.mem_ctrls_1.memoryStateTime::ACT             0                       # Time in different power states
system.mem_ctrls_1.memoryStateTime::ACT_PDN            0                       # Time in different power states
system.pwrStateResidencyTicks::UNDEFINED 439681380500                       # Cumulative time (in ticks) in various power states
system.cpu_voltage_domain.voltage                   1                       # Voltage in Volts
system.cpu_clk_domain.clock                       500                       # Clock period in ticks
system.cpu.dtb.walker.pwrStateResidencyTicks::UNDEFINED 439681380500                       # Cumulative time (in ticks) in various power states
system.cpu.dtb.rdAccesses                   201663886                       # TLB accesses on read requests
system.cpu.dtb.wrAccesses                   100789941                       # TLB accesses on write requests
system.cpu.dtb.rdMisses                        262790                       # TLB misses on read requests
system.cpu.dtb.wrMisses                         65573                       # TLB misses on write requests
system.cpu.apic_clk_domain.clock                 8000                       # Clock period in ticks
system.cpu.interrupts.pwrStateResidencyTicks::UNDEFINED 439681380500                       # Cumulative time (in ticks) in various power states
system.cpu.itb.walker.pwrStateResidencyTicks::UNDEFINED 439681380500                       # Cumulative time (in ticks) in various power states
system.cpu.itb.rdAccesses                           0                       # TLB accesses on read requests
system.cpu.itb.wrAccesses                   580585972                       # TLB accesses on write requests
system.cpu.itb.rdMisses                             0                       # TLB misses on read requests
system.cpu.itb.wrMisses                           195                       # TLB misses on write requests
system.cpu.workload.numSyscalls                    57                       # Number of system calls
system.cpu.pwrStateResidencyTicks::ON    439681380500                       # Cumulative time (in ticks) in various power states
system.cpu.numCycles                        879362772                       # number of cpu cycles simulated
system.cpu.numWorkItemsStarted                      0                       # number of work items this cpu started
system.cpu.numWorkItemsCompleted                    0                       # number of work items this cpu completed
system.cpu.committedInsts                   500473209                       # Number of instructions committed
system.cpu.committedOps                     799250009                       # Number of ops (including micro ops) committed
system.cpu.num_int_alu_accesses             799232522                       # Number of integer alu accesses
system.cpu.num_fp_alu_accesses               33563620                       # Number of float alu accesses
system.cpu.num_vec_alu_accesses                     0                       # Number of vector alu accesses
system.cpu.num_func_calls                       16642                       # number of times a function call or return occured
system.cpu.num_conditional_control_insts     71526555                       # number of instructions that are conditional controls
system.cpu.num_int_insts                    799232522                       # number of integer instructions
system.cpu.num_fp_insts                      33563620                       # number of float instructions
system.cpu.num_vec_insts                            0                       # number of vector instructions
system.cpu.num_int_register_reads          1749558433                       # number of times the integer registers were read
system.cpu.num_int_register_writes          626945613                       # number of times the integer registers were written
system.cpu.num_fp_register_reads             33560299                       # number of times the floating registers were read
system.cpu.num_fp_register_writes                4449                       # number of times the floating registers were written
system.cpu.num_vec_register_reads                   0                       # number of times the vector registers were read
system.cpu.num_vec_register_writes                  0                       # number of times the vector registers were written
system.cpu.num_cc_register_reads            425109832                       # number of times the CC registers were read
system.cpu.num_cc_register_writes           420577516                       # number of times the CC registers were written
system.cpu.num_mem_refs                     302453819                       # number of memory refs
system.cpu.num_load_insts                   201663881                       # Number of load instructions
system.cpu.num_store_insts                  100789938                       # Number of store instructions
system.cpu.num_idle_cycles                          0                       # Number of idle cycles
system.cpu.num_busy_cycles                  879362772                       # Number of busy cycles
system.cpu.not_idle_fraction                        1                       # Percentage of non-idle cycles
system.cpu.idle_fraction                            0                       # Percentage of idle cycles
system.cpu.Branches                          71551506                       # Number of branches fetched
system.cpu.op_class::No_OpClass                 16996      0.00%      0.00% # Class of executed instruction
system.cpu.op_class::IntAlu                 496752126     62.15%     62.15% # Class of executed instruction
system.cpu.op_class::IntMult                       52      0.00%     62.15% # Class of executed instruction
system.cpu.op_class::IntDiv                     24130      0.00%     62.16% # Class of executed instruction
system.cpu.op_class::FloatAdd                    1366      0.00%     62.16% # Class of executed instruction
system.cpu.op_class::FloatCmp                       0      0.00%     62.16% # Class of executed instruction
system.cpu.op_class::FloatCvt                    1520      0.00%     62.16% # Class of executed instruction
system.cpu.op_class::FloatMult                      0      0.00%     62.16% # Class of executed instruction
system.cpu.op_class::FloatMultAcc                   0      0.00%     62.16% # Class of executed instruction
system.cpu.op_class::FloatDiv                       0      0.00%     62.16% # Class of executed instruction
system.cpu.op_class::FloatMisc                      0      0.00%     62.16% # Class of executed instruction
system.cpu.op_class::FloatSqrt                      0      0.00%     62.16% # Class of executed instruction
system.cpu.op_class::SimdAdd                        0      0.00%     62.16% # Class of executed instruction
system.cpu.op_class::SimdAddAcc                     0      0.00%     62.16% # Class of executed instruction
system.cpu.op_class::SimdAlu                        0      0.00%     62.16% # Class of executed instruction
system.cpu.op_class::SimdCmp                        0      0.00%     62.16% # Class of executed instruction
system.cpu.op_class::SimdCvt                        0      0.00%     62.16% # Class of executed instruction
system.cpu.op_class::SimdMisc                       0      0.00%     62.16% # Class of executed instruction
system.cpu.op_class::SimdMult                       0      0.00%     62.16% # Class of executed instruction
system.cpu.op_class::SimdMultAcc                    0      0.00%     62.16% # Class of executed instruction
system.cpu.op_class::SimdShift                      0      0.00%     62.16% # Class of executed instruction
system.cpu.op_class::SimdShiftAcc                   0      0.00%     62.16% # Class of executed instruction
system.cpu.op_class::SimdSqrt                       0      0.00%     62.16% # Class of executed instruction
system.cpu.op_class::SimdFloatAdd                   0      0.00%     62.16% # Class of executed instruction
system.cpu.op_class::SimdFloatAlu                   0      0.00%     62.16% # Class of executed instruction
system.cpu.op_class::SimdFloatCmp                   0      0.00%     62.16% # Class of executed instruction
system.cpu.op_class::SimdFloatCvt                   0      0.00%     62.16% # Class of executed instruction
system.cpu.op_class::SimdFloatDiv                   0      0.00%     62.16% # Class of executed instruction
system.cpu.op_class::SimdFloatMisc                  0      0.00%     62.16% # Class of executed instruction
system.cpu.op_class::SimdFloatMult                  0      0.00%     62.16% # Class of executed instruction
system.cpu.op_class::SimdFloatMultAcc               0      0.00%     62.16% # Class of executed instruction
system.cpu.op_class::SimdFloatSqrt                  0      0.00%     62.16% # Class of executed instruction
system.cpu.op_class::MemRead                201660634     25.23%     87.39% # Class of executed instruction
system.cpu.op_class::MemWrite                67232457      8.41%     95.80% # Class of executed instruction
system.cpu.op_class::FloatMemRead                3247      0.00%     95.80% # Class of executed instruction
system.cpu.op_class::FloatMemWrite           33557481      4.20%    100.00% # Class of executed instruction
system.cpu.op_class::IprAccess                      0      0.00%    100.00% # Class of executed instruction
system.cpu.op_class::InstPrefetch                   0      0.00%    100.00% # Class of executed instruction
system.cpu.op_class::total                  799250009                       # Class of executed instruction
system.cpu.dcache.tags.pwrStateResidencyTicks::UNDEFINED 439681380500                       # Cumulative time (in ticks) in various power states
system.cpu.dcache.tags.replacements          20981057                       # number of replacements
system.cpu.dcache.tags.tagsinuse          1023.905551                       # Cycle average of tags in use
system.cpu.dcache.tags.total_refs           281471746                       # Total number of references to valid blocks.
system.cpu.dcache.tags.sampled_refs          20982081                       # Sample count of references to valid blocks.
system.cpu.dcache.tags.avg_refs             13.414863                       # Average number of references to valid blocks.
system.cpu.dcache.tags.warmup_cycle         144314500                       # Cycle when the warmup percentage was hit.
system.cpu.dcache.tags.occ_blocks::cpu.data  1023.905551                       # Average occupied blocks per requestor
system.cpu.dcache.tags.occ_percent::cpu.data     0.999908                       # Average percentage of cache occupancy
system.cpu.dcache.tags.occ_percent::total     0.999908                       # Average percentage of cache occupancy
system.cpu.dcache.tags.occ_task_id_blocks::1024         1024                       # Occupied blocks per task id
system.cpu.dcache.tags.age_task_id_blocks_1024::0          219                       # Occupied blocks per task id
system.cpu.dcache.tags.age_task_id_blocks_1024::1          803                       # Occupied blocks per task id
system.cpu.dcache.tags.age_task_id_blocks_1024::4            2                       # Occupied blocks per task id
system.cpu.dcache.tags.occ_task_id_percent::1024            1                       # Percentage of cache occupancy per task id
system.cpu.dcache.tags.tag_accesses         625889735                       # Number of tag accesses
system.cpu.dcache.tags.data_accesses        625889735                       # Number of data accesses
system.cpu.dcache.pwrStateResidencyTicks::UNDEFINED 439681380500                       # Cumulative time (in ticks) in various power states
system.cpu.dcache.ReadReq_hits::cpu.data    184877682                       # number of ReadReq hits
system.cpu.dcache.ReadReq_hits::total       184877682                       # number of ReadReq hits
system.cpu.dcache.WriteReq_hits::cpu.data     96594064                       # number of WriteReq hits
system.cpu.dcache.WriteReq_hits::total       96594064                       # number of WriteReq hits
system.cpu.dcache.demand_hits::cpu.data     281471746                       # number of demand (read+write) hits
system.cpu.dcache.demand_hits::total        281471746                       # number of demand (read+write) hits
system.cpu.dcache.overall_hits::cpu.data    281471746                       # number of overall hits
system.cpu.dcache.overall_hits::total       281471746                       # number of overall hits
system.cpu.dcache.ReadReq_misses::cpu.data     16786204                       # number of ReadReq misses
system.cpu.dcache.ReadReq_misses::total      16786204                       # number of ReadReq misses
system.cpu.dcache.WriteReq_misses::cpu.data      4195877                       # number of WriteReq misses
system.cpu.dcache.WriteReq_misses::total      4195877                       # number of WriteReq misses
system.cpu.dcache.demand_misses::cpu.data     20982081                       # number of demand (read+write) misses
system.cpu.dcache.demand_misses::total       20982081                       # number of demand (read+write) misses
system.cpu.dcache.overall_misses::cpu.data     20982081                       # number of overall misses
system.cpu.dcache.overall_misses::total      20982081                       # number of overall misses
system.cpu.dcache.ReadReq_accesses::cpu.data    201663886                       # number of ReadReq accesses(hits+misses)
system.cpu.dcache.ReadReq_accesses::total    201663886                       # number of ReadReq accesses(hits+misses)
system.cpu.dcache.WriteReq_accesses::cpu.data    100789941                       # number of WriteReq accesses(hits+misses)
system.cpu.dcache.WriteReq_accesses::total    100789941                       # number of WriteReq accesses(hits+misses)
system.cpu.dcache.demand_accesses::cpu.data    302453827                       # number of demand (read+write) accesses
system.cpu.dcache.demand_accesses::total    302453827                       # number of demand (read+write) accesses
system.cpu.dcache.overall_accesses::cpu.data    302453827                       # number of overall (read+write) accesses
system.cpu.dcache.overall_accesses::total    302453827                       # number of overall (read+write) accesses
system.cpu.dcache.ReadReq_miss_rate::cpu.data     0.083239                       # miss rate for ReadReq accesses
system.cpu.dcache.ReadReq_miss_rate::total     0.083239                       # miss rate for ReadReq accesses
system.cpu.dcache.WriteReq_miss_rate::cpu.data     0.041630                       # miss rate for WriteReq accesses
system.cpu.dcache.WriteReq_miss_rate::total     0.041630                       # miss rate for WriteReq accesses
system.cpu.dcache.demand_miss_rate::cpu.data     0.069373                       # miss rate for demand accesses
system.cpu.dcache.demand_miss_rate::total     0.069373                       # miss rate for demand accesses
system.cpu.dcache.overall_miss_rate::cpu.data     0.069373                       # miss rate for overall accesses
system.cpu.dcache.overall_miss_rate::total     0.069373                       # miss rate for overall accesses
system.cpu.dcache.blocked_cycles::no_mshrs            0                       # number of cycles access was blocked
system.cpu.dcache.blocked_cycles::no_targets            0                       # number of cycles access was blocked
system.cpu.dcache.blocked::no_mshrs                 0                       # number of cycles access was blocked
system.cpu.dcache.blocked::no_targets               0                       # number of cycles access was blocked
system.cpu.dcache.avg_blocked_cycles::no_mshrs          nan                       # average number of cycles each access was blocked
system.cpu.dcache.avg_blocked_cycles::no_targets          nan                       # average number of cycles each access was blocked
system.cpu.dcache.writebacks::writebacks     20973176                       # number of writebacks
system.cpu.dcache.writebacks::total          20973176                       # number of writebacks
system.cpu.dtb_walker_cache.tags.pwrStateResidencyTicks::UNDEFINED 439681380500                       # Cumulative time (in ticks) in various power states
system.cpu.dtb_walker_cache.tags.replacements            0                       # number of replacements
system.cpu.dtb_walker_cache.tags.tagsinuse            0                       # Cycle average of tags in use
system.cpu.dtb_walker_cache.tags.total_refs            0                       # Total number of references to valid blocks.
system.cpu.dtb_walker_cache.tags.sampled_refs            0                       # Sample count of references to valid blocks.
system.cpu.dtb_walker_cache.tags.avg_refs          nan                       # Average number of references to valid blocks.
system.cpu.dtb_walker_cache.tags.warmup_cycle            0                       # Cycle when the warmup percentage was hit.
system.cpu.dtb_walker_cache.tags.tag_accesses            0                       # Number of tag accesses
system.cpu.dtb_walker_cache.tags.data_accesses            0                       # Number of data accesses
system.cpu.dtb_walker_cache.pwrStateResidencyTicks::UNDEFINED 439681380500                       # Cumulative time (in ticks) in various power states
system.cpu.dtb_walker_cache.blocked_cycles::no_mshrs            0                       # number of cycles access was blocked
system.cpu.dtb_walker_cache.blocked_cycles::no_targets            0                       # number of cycles access was blocked
system.cpu.dtb_walker_cache.blocked::no_mshrs            0                       # number of cycles access was blocked
system.cpu.dtb_walker_cache.blocked::no_targets            0                       # number of cycles access was blocked
system.cpu.dtb_walker_cache.avg_blocked_cycles::no_mshrs          nan                       # average number of cycles each access was blocked
system.cpu.dtb_walker_cache.avg_blocked_cycles::no_targets          nan                       # average number of cycles each access was blocked
system.cpu.icache.tags.pwrStateResidencyTicks::UNDEFINED 439681380500                       # Cumulative time (in ticks) in various power states
system.cpu.icache.tags.replacements               925                       # number of replacements
system.cpu.icache.tags.tagsinuse           499.745057                       # Cycle average of tags in use
system.cpu.icache.tags.total_refs           580584544                       # Total number of references to valid blocks.
system.cpu.icache.tags.sampled_refs              1428                       # Sample count of references to valid blocks.
system.cpu.icache.tags.avg_refs          406571.809524                       # Average number of references to valid blocks.
system.cpu.icache.tags.warmup_cycle                 0                       # Cycle when the warmup percentage was hit.
system.cpu.icache.tags.occ_blocks::cpu.inst   499.745057                       # Average occupied blocks per requestor
system.cpu.icache.tags.occ_percent::cpu.inst     0.976065                       # Average percentage of cache occupancy
system.cpu.icache.tags.occ_percent::total     0.976065                       # Average percentage of cache occupancy
system.cpu.icache.tags.occ_task_id_blocks::1024          503                       # Occupied blocks per task id
system.cpu.icache.tags.age_task_id_blocks_1024::0           78                       # Occupied blocks per task id
system.cpu.icache.tags.age_task_id_blocks_1024::1            7                       # Occupied blocks per task id
system.cpu.icache.tags.age_task_id_blocks_1024::4          418                       # Occupied blocks per task id
system.cpu.icache.tags.occ_task_id_percent::1024     0.982422                       # Percentage of cache occupancy per task id
system.cpu.icache.tags.tag_accesses        1161173372                       # Number of tag accesses
system.cpu.icache.tags.data_accesses       1161173372                       # Number of data accesses
system.cpu.icache.pwrStateResidencyTicks::UNDEFINED 439681380500                       # Cumulative time (in ticks) in various power states
system.cpu.icache.ReadReq_hits::cpu.inst    580584544                       # number of ReadReq hits
system.cpu.icache.ReadReq_hits::total       580584544                       # number of ReadReq hits
system.cpu.icache.demand_hits::cpu.inst     580584544                       # number of demand (read+write) hits
system.cpu.icache.demand_hits::total        580584544                       # number of demand (read+write) hits
system.cpu.icache.overall_hits::cpu.inst    580584544                       # number of overall hits
system.cpu.icache.overall_hits::total       580584544                       # number of overall hits
system.cpu.icache.ReadReq_misses::cpu.inst         1428                       # number of ReadReq misses
system.cpu.icache.ReadReq_misses::total          1428                       # number of ReadReq misses
system.cpu.icache.demand_misses::cpu.inst         1428                       # number of demand (read+write) misses
system.cpu.icache.demand_misses::total           1428                       # number of demand (read+write) misses
system.cpu.icache.overall_misses::cpu.inst         1428                       # number of overall misses
system.cpu.icache.overall_misses::total          1428                       # number of overall misses
system.cpu.icache.ReadReq_accesses::cpu.inst    580585972                       # number of ReadReq accesses(hits+misses)
system.cpu.icache.ReadReq_accesses::total    580585972                       # number of ReadReq accesses(hits+misses)
system.cpu.icache.demand_accesses::cpu.inst    580585972                       # number of demand (read+write) accesses
system.cpu.icache.demand_accesses::total    580585972                       # number of demand (read+write) accesses
system.cpu.icache.overall_accesses::cpu.inst    580585972                       # number of overall (read+write) accesses
system.cpu.icache.overall_accesses::total    580585972                       # number of overall (read+write) accesses
system.cpu.icache.ReadReq_miss_rate::cpu.inst     0.000002                       # miss rate for ReadReq accesses
system.cpu.icache.ReadReq_miss_rate::total     0.000002                       # miss rate for ReadReq accesses
system.cpu.icache.demand_miss_rate::cpu.inst     0.000002                       # miss rate for demand accesses
system.cpu.icache.demand_miss_rate::total     0.000002                       # miss rate for demand accesses
system.cpu.icache.overall_miss_rate::cpu.inst     0.000002                       # miss rate for overall accesses
system.cpu.icache.overall_miss_rate::total     0.000002                       # miss rate for overall accesses
system.cpu.icache.blocked_cycles::no_mshrs            0                       # number of cycles access was blocked
system.cpu.icache.blocked_cycles::no_targets            0                       # number of cycles access was blocked
system.cpu.icache.blocked::no_mshrs                 0                       # number of cycles access was blocked
system.cpu.icache.blocked::no_targets               0                       # number of cycles access was blocked
system.cpu.icache.avg_blocked_cycles::no_mshrs          nan                       # average number of cycles each access was blocked
system.cpu.icache.avg_blocked_cycles::no_targets          nan                       # average number of cycles each access was blocked
system.cpu.icache.writebacks::writebacks          925                       # number of writebacks
system.cpu.icache.writebacks::total               925                       # number of writebacks
system.cpu.itb_walker_cache.tags.pwrStateResidencyTicks::UNDEFINED 439681380500                       # Cumulative time (in ticks) in various power states
system.cpu.itb_walker_cache.tags.replacements            0                       # number of replacements
system.cpu.itb_walker_cache.tags.tagsinuse            0                       # Cycle average of tags in use
system.cpu.itb_walker_cache.tags.total_refs            0                       # Total number of references to valid blocks.
system.cpu.itb_walker_cache.tags.sampled_refs            0                       # Sample count of references to valid blocks.
system.cpu.itb_walker_cache.tags.avg_refs          nan                       # Average number of references to valid blocks.
system.cpu.itb_walker_cache.tags.warmup_cycle            0                       # Cycle when the warmup percentage was hit.
system.cpu.itb_walker_cache.tags.tag_accesses            0                       # Number of tag accesses
system.cpu.itb_walker_cache.tags.data_accesses            0                       # Number of data accesses
system.cpu.itb_walker_cache.pwrStateResidencyTicks::UNDEFINED 439681380500                       # Cumulative time (in ticks) in various power states
system.cpu.itb_walker_cache.blocked_cycles::no_mshrs            0                       # number of cycles access was blocked
system.cpu.itb_walker_cache.blocked_cycles::no_targets            0                       # number of cycles access was blocked
system.cpu.itb_walker_cache.blocked::no_mshrs            0                       # number of cycles access was blocked
system.cpu.itb_walker_cache.blocked::no_targets            0                       # number of cycles access was blocked
system.cpu.itb_walker_cache.avg_blocked_cycles::no_mshrs          nan                       # average number of cycles each access was blocked
system.cpu.itb_walker_cache.avg_blocked_cycles::no_targets          nan                       # average number of cycles each access was blocked
system.l2.tags.pwrStateResidencyTicks::UNDEFINED 439681380500                       # Cumulative time (in ticks) in various power states
system.l2.tags.replacements                  20947647                       # number of replacements
system.l2.tags.tagsinuse                 32675.026398                       # Cycle average of tags in use
system.l2.tags.total_refs                    20985071                       # Total number of references to valid blocks.
system.l2.tags.sampled_refs                  20980415                       # Sample count of references to valid blocks.
system.l2.tags.avg_refs                      1.000222                       # Average number of references to valid blocks.
system.l2.tags.warmup_cycle                1643430500                       # Cycle when the warmup percentage was hit.
system.l2.tags.occ_blocks::writebacks        0.004140                       # Average occupied blocks per requestor
system.l2.tags.occ_blocks::cpu.inst          2.383817                       # Average occupied blocks per requestor
system.l2.tags.occ_blocks::cpu.data      32672.638441                       # Average occupied blocks per requestor
system.l2.tags.occ_percent::writebacks       0.000000                       # Average percentage of cache occupancy
system.l2.tags.occ_percent::cpu.inst         0.000073                       # Average percentage of cache occupancy
system.l2.tags.occ_percent::cpu.data         0.997090                       # Average percentage of cache occupancy
system.l2.tags.occ_percent::total            0.997163                       # Average percentage of cache occupancy
system.l2.tags.occ_task_id_blocks::1024         32768                       # Occupied blocks per task id
system.l2.tags.age_task_id_blocks_1024::0          377                       # Occupied blocks per task id
system.l2.tags.age_task_id_blocks_1024::1         3784                       # Occupied blocks per task id
system.l2.tags.age_task_id_blocks_1024::2        28607                       # Occupied blocks per task id
system.l2.tags.occ_task_id_percent::1024            1                       # Percentage of cache occupancy per task id
system.l2.tags.tag_accesses                 356704303                       # Number of tag accesses
system.l2.tags.data_accesses                356704303                       # Number of data accesses
system.l2.pwrStateResidencyTicks::UNDEFINED 439681380500                       # Cumulative time (in ticks) in various power states
system.l2.WritebackDirty_hits::writebacks     20973176                       # number of WritebackDirty hits
system.l2.WritebackDirty_hits::total         20973176                       # number of WritebackDirty hits
system.l2.WritebackClean_hits::writebacks          925                       # number of WritebackClean hits
system.l2.WritebackClean_hits::total              925                       # number of WritebackClean hits
system.l2.ReadExReq_hits::cpu.data                308                       # number of ReadExReq hits
system.l2.ReadExReq_hits::total                   308                       # number of ReadExReq hits
system.l2.ReadCleanReq_hits::cpu.inst             156                       # number of ReadCleanReq hits
system.l2.ReadCleanReq_hits::total                156                       # number of ReadCleanReq hits
system.l2.ReadSharedReq_hits::cpu.data           2714                       # number of ReadSharedReq hits
system.l2.ReadSharedReq_hits::total              2714                       # number of ReadSharedReq hits
system.l2.demand_hits::cpu.inst                   156                       # number of demand (read+write) hits
system.l2.demand_hits::cpu.data                  3022                       # number of demand (read+write) hits
system.l2.demand_hits::total                     3178                       # number of demand (read+write) hits
system.l2.overall_hits::cpu.inst                  156                       # number of overall hits
system.l2.overall_hits::cpu.data                 3022                       # number of overall hits
system.l2.overall_hits::total                    3178                       # number of overall hits
system.l2.ReadExReq_misses::cpu.data          4195569                       # number of ReadExReq misses
system.l2.ReadExReq_misses::total             4195569                       # number of ReadExReq misses
system.l2.ReadCleanReq_misses::cpu.inst          1272                       # number of ReadCleanReq misses
system.l2.ReadCleanReq_misses::total             1272                       # number of ReadCleanReq misses
system.l2.ReadSharedReq_misses::cpu.data     16783490                       # number of ReadSharedReq misses
system.l2.ReadSharedReq_misses::total        16783490                       # number of ReadSharedReq misses
system.l2.demand_misses::cpu.inst                1272                       # number of demand (read+write) misses
system.l2.demand_misses::cpu.data            20979059                       # number of demand (read+write) misses
system.l2.demand_misses::total               20980331                       # number of demand (read+write) misses
system.l2.overall_misses::cpu.inst               1272                       # number of overall misses
system.l2.overall_misses::cpu.data           20979059                       # number of overall misses
system.l2.overall_misses::total              20980331                       # number of overall misses
system.l2.WritebackDirty_accesses::writebacks     20973176                       # number of WritebackDirty accesses(hits+misses)
system.l2.WritebackDirty_accesses::total     20973176                       # number of WritebackDirty accesses(hits+misses)
system.l2.WritebackClean_accesses::writebacks          925                       # number of WritebackClean accesses(hits+misses)
system.l2.WritebackClean_accesses::total          925                       # number of WritebackClean accesses(hits+misses)
system.l2.ReadExReq_accesses::cpu.data        4195877                       # number of ReadExReq accesses(hits+misses)
system.l2.ReadExReq_accesses::total           4195877                       # number of ReadExReq accesses(hits+misses)
system.l2.ReadCleanReq_accesses::cpu.inst         1428                       # number of ReadCleanReq accesses(hits+misses)
system.l2.ReadCleanReq_accesses::total           1428                       # number of ReadCleanReq accesses(hits+misses)
system.l2.ReadSharedReq_accesses::cpu.data     16786204                       # number of ReadSharedReq accesses(hits+misses)
system.l2.ReadSharedReq_accesses::total      16786204                       # number of ReadSharedReq accesses(hits+misses)
system.l2.demand_accesses::cpu.inst              1428                       # number of demand (read+write) accesses
system.l2.demand_accesses::cpu.data          20982081                       # number of demand (read+write) accesses
system.l2.demand_accesses::total             20983509                       # number of demand (read+write) accesses
system.l2.overall_accesses::cpu.inst             1428                       # number of overall (read+write) accesses
system.l2.overall_accesses::cpu.data         20982081                       # number of overall (read+write) accesses
system.l2.overall_accesses::total            20983509                       # number of overall (read+write) accesses
system.l2.ReadExReq_miss_rate::cpu.data      0.999927                       # miss rate for ReadExReq accesses
system.l2.ReadExReq_miss_rate::total         0.999927                       # miss rate for ReadExReq accesses
system.l2.ReadCleanReq_miss_rate::cpu.inst     0.890756                       # miss rate for ReadCleanReq accesses
system.l2.ReadCleanReq_miss_rate::total      0.890756                       # miss rate for ReadCleanReq accesses
system.l2.ReadSharedReq_miss_rate::cpu.data     0.999838                       # miss rate for ReadSharedReq accesses
system.l2.ReadSharedReq_miss_rate::total     0.999838                       # miss rate for ReadSharedReq accesses
system.l2.demand_miss_rate::cpu.inst         0.890756                       # miss rate for demand accesses
system.l2.demand_miss_rate::cpu.data         0.999856                       # miss rate for demand accesses
system.l2.demand_miss_rate::total            0.999849                       # miss rate for demand accesses
system.l2.overall_miss_rate::cpu.inst        0.890756                       # miss rate for overall accesses
system.l2.overall_miss_rate::cpu.data        0.999856                       # miss rate for overall accesses
system.l2.overall_miss_rate::total           0.999849                       # miss rate for overall accesses
system.l2.blocked_cycles::no_mshrs                  0                       # number of cycles access was blocked
system.l2.blocked_cycles::no_targets                0                       # number of cycles access was blocked
system.l2.blocked::no_mshrs                         0                       # number of cycles access was blocked
system.l2.blocked::no_targets                       0                       # number of cycles access was blocked
system.l2.avg_blocked_cycles::no_mshrs            nan                       # average number of cycles each access was blocked
system.l2.avg_blocked_cycles::no_targets          nan                       # average number of cycles each access was blocked
system.l2.writebacks::writebacks             20940722                       # number of writebacks
system.l2.writebacks::total                  20940722                       # number of writebacks
system.membus.snoop_filter.tot_requests      41927474                       # Total number of requests made to the snoop filter.
system.membus.snoop_filter.hit_single_requests     20947143                       # Number of requests hitting in the snoop filter with a single holder of the requested data.
system.membus.snoop_filter.hit_multi_requests            0                       # Number of requests hitting in the snoop filter with multiple (>1) holders of the requested data.
system.membus.snoop_filter.tot_snoops               0                       # Total number of snoops made to the snoop filter.
system.membus.snoop_filter.hit_single_snoops            0                       # Number of snoops hitting in the snoop filter with a single holder of the requested data.
system.membus.snoop_filter.hit_multi_snoops            0                       # Number of snoops hitting in the snoop filter with multiple (>1) holders of the requested data.
system.membus.pwrStateResidencyTicks::UNDEFINED 439681380500                       # Cumulative time (in ticks) in various power states
system.membus.trans_dist::ReadResp           16784762                       # Transaction distribution
system.membus.trans_dist::WritebackDirty     20940722                       # Transaction distribution
system.membus.trans_dist::CleanEvict             6421                       # Transaction distribution
system.membus.trans_dist::ReadExReq           4195569                       # Transaction distribution
system.membus.trans_dist::ReadExResp          4195569                       # Transaction distribution
system.membus.trans_dist::ReadSharedReq      16784762                       # Transaction distribution
system.membus.pkt_count_system.l2.mem_side::system.mem_ctrls.port     62907805                       # Packet count per connected master and slave (bytes)
system.membus.pkt_count_system.l2.mem_side::total     62907805                       # Packet count per connected master and slave (bytes)
system.membus.pkt_count::total               62907805                       # Packet count per connected master and slave (bytes)
system.membus.pkt_size_system.l2.mem_side::system.mem_ctrls.port   2682947392                       # Cumulative packet size per connected master and slave (bytes)
system.membus.pkt_size_system.l2.mem_side::total   2682947392                       # Cumulative packet size per connected master and slave (bytes)
system.membus.pkt_size::total              2682947392                       # Cumulative packet size per connected master and slave (bytes)
system.membus.snoops                                0                       # Total snoops (count)
system.membus.snoopTraffic                          0                       # Total snoop traffic (bytes)
system.membus.snoop_fanout::samples          41927474                       # Request fanout histogram
system.membus.snoop_fanout::mean                    0                       # Request fanout histogram
system.membus.snoop_fanout::stdev                   0                       # Request fanout histogram
system.membus.snoop_fanout::underflows              0      0.00%      0.00% # Request fanout histogram
system.membus.snoop_fanout::0                41927474    100.00%    100.00% # Request fanout histogram
system.membus.snoop_fanout::1                       0      0.00%    100.00% # Request fanout histogram
system.membus.snoop_fanout::overflows               0      0.00%    100.00% # Request fanout histogram
system.membus.snoop_fanout::min_value               0                       # Request fanout histogram
system.membus.snoop_fanout::max_value               0                       # Request fanout histogram
system.membus.snoop_fanout::total            41927474                       # Request fanout histogram
system.tol2bus.snoop_filter.tot_requests     41965491                       # Total number of requests made to the snoop filter.
system.tol2bus.snoop_filter.hit_single_requests     20981982                       # Number of requests hitting in the snoop filter with a single holder of the requested data.
system.tol2bus.snoop_filter.hit_multi_requests            5                       # Number of requests hitting in the snoop filter with multiple (>1) holders of the requested data.
system.tol2bus.snoop_filter.tot_snoops            504                       # Total number of snoops made to the snoop filter.
system.tol2bus.snoop_filter.hit_single_snoops          504                       # Number of snoops hitting in the snoop filter with a single holder of the requested data.
system.tol2bus.snoop_filter.hit_multi_snoops            0                       # Number of snoops hitting in the snoop filter with multiple (>1) holders of the requested data.
system.tol2bus.pwrStateResidencyTicks::UNDEFINED 439681380500                       # Cumulative time (in ticks) in various power states
system.tol2bus.trans_dist::ReadResp          16787632                       # Transaction distribution
system.tol2bus.trans_dist::WritebackDirty     20973176                       # Transaction distribution
system.tol2bus.trans_dist::WritebackClean          925                       # Transaction distribution
system.tol2bus.trans_dist::CleanEvict            7881                       # Transaction distribution
system.tol2bus.trans_dist::ReadExReq          4195877                       # Transaction distribution
system.tol2bus.trans_dist::ReadExResp         4195877                       # Transaction distribution
system.tol2bus.trans_dist::ReadCleanReq          1428                       # Transaction distribution
system.tol2bus.trans_dist::ReadSharedReq     16786204                       # Transaction distribution
system.tol2bus.pkt_count_system.cpu.icache.mem_side::system.l2.cpu_side         3781                       # Packet count per connected master and slave (bytes)
system.tol2bus.pkt_count_system.cpu.dcache.mem_side::system.l2.cpu_side     62945219                       # Packet count per connected master and slave (bytes)
system.tol2bus.pkt_count::total              62949000                       # Packet count per connected master and slave (bytes)
system.tol2bus.pkt_size_system.cpu.icache.mem_side::system.l2.cpu_side       150592                       # Cumulative packet size per connected master and slave (bytes)
system.tol2bus.pkt_size_system.cpu.dcache.mem_side::system.l2.cpu_side   2685136448                       # Cumulative packet size per connected master and slave (bytes)
system.tol2bus.pkt_size::total             2685287040                       # Cumulative packet size per connected master and slave (bytes)
system.tol2bus.snoops                        20947647                       # Total snoops (count)
system.tol2bus.snoopTraffic                1340206208                       # Total snoop traffic (bytes)
system.tol2bus.snoop_fanout::samples         62913138                       # Request fanout histogram
system.tol2bus.snoop_fanout::mean            0.000008                       # Request fanout histogram
system.tol2bus.snoop_fanout::stdev           0.002858                       # Request fanout histogram
system.tol2bus.snoop_fanout::underflows             0      0.00%      0.00% # Request fanout histogram
system.tol2bus.snoop_fanout::0               62912624    100.00%    100.00% # Request fanout histogram
system.tol2bus.snoop_fanout::1                    514      0.00%    100.00% # Request fanout histogram
system.tol2bus.snoop_fanout::2                      0      0.00%    100.00% # Request fanout histogram
system.tol2bus.snoop_fanout::3                      0      0.00%    100.00% # Request fanout histogram
system.tol2bus.snoop_fanout::4                      0      0.00%    100.00% # Request fanout histogram
system.tol2bus.snoop_fanout::overflows              0      0.00%    100.00% # Request fanout histogram
system.tol2bus.snoop_fanout::min_value              0                       # Request fanout histogram
system.tol2bus.snoop_fanout::max_value              1                       # Request fanout histogram
system.tol2bus.snoop_fanout::total           62913138                       # Request fanout histogram

---------- End Simulation Statistics   ----------
